
---------- Begin Simulation Statistics ----------
final_tick                                 7351689000                       # Number of ticks from beginning of simulation (restored from checkpoints and never reset)
host_inst_rate                                 222519                       # Simulator instruction rate (inst/s)
host_mem_usage                                 798116                       # Number of bytes of host memory used
host_op_rate                                   342463                       # Simulator op (including micro ops) rate (op/s)
host_seconds                                    64.53                       # Real time elapsed on the host
host_tick_rate                              113927428                       # Simulator tick rate (ticks/s)
sim_freq                                 1000000000000                       # Frequency of simulated ticks
sim_insts                                    14359035                       # Number of instructions simulated
sim_ops                                      22098997                       # Number of ops (including micro ops) simulated
sim_seconds                                  0.007352                       # Number of seconds simulated
sim_ticks                                  7351689000                       # Number of ticks simulated
system.cpu.branchPred.BTBCorrect                    0                       # Number of correct BTB predictions (this stat may not work properly.
system.cpu.branchPred.BTBHitPct              0.000000                       # BTB Hit Percentage
system.cpu.branchPred.BTBHits                       0                       # Number of BTB hits
system.cpu.branchPred.BTBLookups               264973                       # Number of BTB lookups
system.cpu.branchPred.RASInCorrect                  1                       # Number of incorrect RAS predictions.
system.cpu.branchPred.condIncorrect               796                       # Number of conditional branches incorrect
system.cpu.branchPred.condPredicted            297801                       # Number of conditional branches predicted
system.cpu.branchPred.indirectHits             262743                       # Number of indirect target hits.
system.cpu.branchPred.indirectLookups          264973                       # Number of indirect predictor lookups.
system.cpu.branchPred.indirectMisses             2230                       # Number of indirect misses.
system.cpu.branchPred.lookups                  298534                       # Number of BP lookups
system.cpu.branchPred.usedRAS                     273                       # Number of times the RAS was used to get a target.
system.cpu.branchPredindirectMispredicted          438                       # Number of mispredicted indirect branches.
system.cpu.cc_regfile_reads                   1482688                       # number of cc regfile reads
system.cpu.cc_regfile_writes                  1710047                       # number of cc regfile writes
system.cpu.commit.amos                              0                       # Number of atomic instructions committed
system.cpu.commit.branchMispredicts               809                       # The number of times a branch was mispredicted
system.cpu.commit.branches                     296372                       # Number of branches committed
system.cpu.commit.bw_lim_events               2018670                       # number cycles where commit BW limit reached
system.cpu.commit.commitNonSpecStalls               8                       # The number of times commit has been forced to stall to communicate backwards
system.cpu.commit.commitSquashedInsts           26106                       # The number of squashed insts skipped by commit
system.cpu.commit.committedInsts             14359035                       # Number of instructions committed
system.cpu.commit.committedOps               22098997                       # Number of ops (including micro ops) committed
system.cpu.commit.committed_per_cycle::samples      7332773                       # Number of insts commited each cycle
system.cpu.commit.committed_per_cycle::mean     3.013730                       # Number of insts commited each cycle
system.cpu.commit.committed_per_cycle::stdev     3.387947                       # Number of insts commited each cycle
system.cpu.commit.committed_per_cycle::underflows            0      0.00%      0.00% # Number of insts commited each cycle
system.cpu.commit.committed_per_cycle::0      2216168     30.22%     30.22% # Number of insts commited each cycle
system.cpu.commit.committed_per_cycle::1      2385672     32.53%     62.76% # Number of insts commited each cycle
system.cpu.commit.committed_per_cycle::2         8151      0.11%     62.87% # Number of insts commited each cycle
system.cpu.commit.committed_per_cycle::3        14659      0.20%     63.07% # Number of insts commited each cycle
system.cpu.commit.committed_per_cycle::4       397167      5.42%     68.48% # Number of insts commited each cycle
system.cpu.commit.committed_per_cycle::5        24162      0.33%     68.81% # Number of insts commited each cycle
system.cpu.commit.committed_per_cycle::6        82660      1.13%     69.94% # Number of insts commited each cycle
system.cpu.commit.committed_per_cycle::7       185464      2.53%     72.47% # Number of insts commited each cycle
system.cpu.commit.committed_per_cycle::8      2018670     27.53%    100.00% # Number of insts commited each cycle
system.cpu.commit.committed_per_cycle::overflows            0      0.00%    100.00% # Number of insts commited each cycle
system.cpu.commit.committed_per_cycle::min_value            0                       # Number of insts commited each cycle
system.cpu.commit.committed_per_cycle::max_value            8                       # Number of insts commited each cycle
system.cpu.commit.committed_per_cycle::total      7332773                       # Number of insts commited each cycle
system.cpu.commit.fp_insts                   14942508                       # Number of committed floating point instructions.
system.cpu.commit.function_calls                   88                       # Number of function calls committed.
system.cpu.commit.int_insts                  13677222                       # Number of committed integer instructions.
system.cpu.commit.loads                       4523573                       # Number of loads committed
system.cpu.commit.membars                           0                       # Number of memory barriers committed
system.cpu.commit.op_class_0::No_OpClass        33067      0.15%      0.15% # Class of committed instruction
system.cpu.commit.op_class_0::IntAlu          7055113     31.93%     32.07% # Class of committed instruction
system.cpu.commit.op_class_0::IntMult               5      0.00%     32.07% # Class of committed instruction
system.cpu.commit.op_class_0::IntDiv               21      0.00%     32.07% # Class of committed instruction
system.cpu.commit.op_class_0::FloatAdd        4194306     18.98%     51.05% # Class of committed instruction
system.cpu.commit.op_class_0::FloatCmp              0      0.00%     51.05% # Class of committed instruction
system.cpu.commit.op_class_0::FloatCvt              0      0.00%     51.05% # Class of committed instruction
system.cpu.commit.op_class_0::FloatMult             0      0.00%     51.05% # Class of committed instruction
system.cpu.commit.op_class_0::FloatMultAcc            0      0.00%     51.05% # Class of committed instruction
system.cpu.commit.op_class_0::FloatDiv              0      0.00%     51.05% # Class of committed instruction
system.cpu.commit.op_class_0::FloatMisc             0      0.00%     51.05% # Class of committed instruction
system.cpu.commit.op_class_0::FloatSqrt             0      0.00%     51.05% # Class of committed instruction
system.cpu.commit.op_class_0::SimdAdd               0      0.00%     51.05% # Class of committed instruction
system.cpu.commit.op_class_0::SimdAddAcc            0      0.00%     51.05% # Class of committed instruction
system.cpu.commit.op_class_0::SimdAlu              34      0.00%     51.05% # Class of committed instruction
system.cpu.commit.op_class_0::SimdCmp               0      0.00%     51.05% # Class of committed instruction
system.cpu.commit.op_class_0::SimdCvt              32      0.00%     51.05% # Class of committed instruction
system.cpu.commit.op_class_0::SimdMisc             46      0.00%     51.05% # Class of committed instruction
system.cpu.commit.op_class_0::SimdMult              0      0.00%     51.05% # Class of committed instruction
system.cpu.commit.op_class_0::SimdMultAcc            0      0.00%     51.05% # Class of committed instruction
system.cpu.commit.op_class_0::SimdShift             0      0.00%     51.05% # Class of committed instruction
system.cpu.commit.op_class_0::SimdShiftAcc            0      0.00%     51.05% # Class of committed instruction
system.cpu.commit.op_class_0::SimdDiv               0      0.00%     51.05% # Class of committed instruction
system.cpu.commit.op_class_0::SimdSqrt              0      0.00%     51.05% # Class of committed instruction
system.cpu.commit.op_class_0::SimdFloatAdd      2097152      9.49%     60.54% # Class of committed instruction
system.cpu.commit.op_class_0::SimdFloatAlu            0      0.00%     60.54% # Class of committed instruction
system.cpu.commit.op_class_0::SimdFloatCmp            0      0.00%     60.54% # Class of committed instruction
system.cpu.commit.op_class_0::SimdFloatCvt            0      0.00%     60.54% # Class of committed instruction
system.cpu.commit.op_class_0::SimdFloatDiv            0      0.00%     60.54% # Class of committed instruction
system.cpu.commit.op_class_0::SimdFloatMisc            0      0.00%     60.54% # Class of committed instruction
system.cpu.commit.op_class_0::SimdFloatMult      2097152      9.49%     70.03% # Class of committed instruction
system.cpu.commit.op_class_0::SimdFloatMultAcc            0      0.00%     70.03% # Class of committed instruction
system.cpu.commit.op_class_0::SimdFloatSqrt            0      0.00%     70.03% # Class of committed instruction
system.cpu.commit.op_class_0::SimdReduceAdd            0      0.00%     70.03% # Class of committed instruction
system.cpu.commit.op_class_0::SimdReduceAlu            0      0.00%     70.03% # Class of committed instruction
system.cpu.commit.op_class_0::SimdReduceCmp            0      0.00%     70.03% # Class of committed instruction
system.cpu.commit.op_class_0::SimdFloatReduceAdd            0      0.00%     70.03% # Class of committed instruction
system.cpu.commit.op_class_0::SimdFloatReduceCmp            0      0.00%     70.03% # Class of committed instruction
system.cpu.commit.op_class_0::SimdAes               0      0.00%     70.03% # Class of committed instruction
system.cpu.commit.op_class_0::SimdAesMix            0      0.00%     70.03% # Class of committed instruction
system.cpu.commit.op_class_0::SimdSha1Hash            0      0.00%     70.03% # Class of committed instruction
system.cpu.commit.op_class_0::SimdSha1Hash2            0      0.00%     70.03% # Class of committed instruction
system.cpu.commit.op_class_0::SimdSha256Hash            0      0.00%     70.03% # Class of committed instruction
system.cpu.commit.op_class_0::SimdSha256Hash2            0      0.00%     70.03% # Class of committed instruction
system.cpu.commit.op_class_0::SimdShaSigma2            0      0.00%     70.03% # Class of committed instruction
system.cpu.commit.op_class_0::SimdShaSigma3            0      0.00%     70.03% # Class of committed instruction
system.cpu.commit.op_class_0::SimdPredAlu            0      0.00%     70.03% # Class of committed instruction
system.cpu.commit.op_class_0::MemRead           67099      0.30%     70.34% # Class of committed instruction
system.cpu.commit.op_class_0::MemWrite           1192      0.01%     70.34% # Class of committed instruction
system.cpu.commit.op_class_0::FloatMemRead      4456474     20.17%     90.51% # Class of committed instruction
system.cpu.commit.op_class_0::FloatMemWrite      2097304      9.49%    100.00% # Class of committed instruction
system.cpu.commit.op_class_0::IprAccess             0      0.00%    100.00% # Class of committed instruction
system.cpu.commit.op_class_0::InstPrefetch            0      0.00%    100.00% # Class of committed instruction
system.cpu.commit.op_class_0::total          22098997                       # Class of committed instruction
system.cpu.commit.refs                        6622069                       # Number of memory references committed
system.cpu.commit.swp_count                         0                       # Number of s/w prefetches committed
system.cpu.commit.vec_insts                         0                       # Number of committed Vector instructions.
system.cpu.committedInsts                    14359035                       # Number of Instructions Simulated
system.cpu.committedOps                      22098997                       # Number of Ops (including micro ops) Simulated
system.cpu.cpi                               0.511991                       # CPI: Cycles Per Instruction
system.cpu.cpi_total                         0.511991                       # CPI: Total CPI of All Threads
system.cpu.decode.BlockedCycles               3945991                       # Number of cycles decode is blocked
system.cpu.decode.DecodedInsts               22138597                       # Number of instructions handled by decode
system.cpu.decode.IdleCycles                   535409                       # Number of cycles decode is idle
system.cpu.decode.RunCycles                   1591148                       # Number of cycles decode is running
system.cpu.decode.SquashCycles                    959                       # Number of cycles decode is squashing
system.cpu.decode.UnblockCycles               1263155                       # Number of cycles decode is unblocking
system.cpu.dtb.rdAccesses                     4859723                       # TLB accesses on read requests
system.cpu.dtb.rdMisses                            98                       # TLB misses on read requests
system.cpu.dtb.wrAccesses                     2099144                       # TLB accesses on write requests
system.cpu.dtb.wrMisses                            12                       # TLB misses on write requests
system.cpu.fetch.Branches                      298534                       # Number of branches that fetch encountered
system.cpu.fetch.CacheLines                   1642596                       # Number of cache lines fetched
system.cpu.fetch.Cycles                       5682947                       # Number of cycles fetch has run and was not squashing or blocked
system.cpu.fetch.IcacheSquashes                   418                       # Number of outstanding Icache misses that were squashed
system.cpu.fetch.Insts                       14387707                       # Number of instructions fetch has processed
system.cpu.fetch.MiscStallCycles                   17                       # Number of cycles fetch has spent waiting on interrupts, or bad addresses, or out of MSHRs
system.cpu.fetch.PendingQuiesceStallCycles            7                       # Number of stall cycles due to pending quiesce instructions
system.cpu.fetch.PendingTrapStallCycles            85                       # Number of stall cycles due to pending traps
system.cpu.fetch.SquashCycles                    1918                       # Number of cycles fetch has spent squashing
system.cpu.fetch.branchRate                  0.040608                       # Number of branch fetches per cycle
system.cpu.fetch.icacheStallCycles            1652647                       # Number of cycles fetch is stalled on an Icache miss
system.cpu.fetch.predictedBranches             263016                       # Number of branches that fetch has predicted taken
system.cpu.fetch.rate                        1.957061                       # Number of inst fetches per cycle
system.cpu.fetch.rateDist::samples            7336662                       # Number of instructions fetched each cycle (Total)
system.cpu.fetch.rateDist::mean              3.018451                       # Number of instructions fetched each cycle (Total)
system.cpu.fetch.rateDist::stdev             3.470545                       # Number of instructions fetched each cycle (Total)
system.cpu.fetch.rateDist::underflows               0      0.00%      0.00% # Number of instructions fetched each cycle (Total)
system.cpu.fetch.rateDist::0                  3745413     51.05%     51.05% # Number of instructions fetched each cycle (Total)
system.cpu.fetch.rateDist::1                   108340      1.48%     52.53% # Number of instructions fetched each cycle (Total)
system.cpu.fetch.rateDist::2                   336345      4.58%     57.11% # Number of instructions fetched each cycle (Total)
system.cpu.fetch.rateDist::3                   196471      2.68%     59.79% # Number of instructions fetched each cycle (Total)
system.cpu.fetch.rateDist::4                   327766      4.47%     64.26% # Number of instructions fetched each cycle (Total)
system.cpu.fetch.rateDist::5                   116834      1.59%     65.85% # Number of instructions fetched each cycle (Total)
system.cpu.fetch.rateDist::6                   468896      6.39%     72.24% # Number of instructions fetched each cycle (Total)
system.cpu.fetch.rateDist::7                   226476      3.09%     75.33% # Number of instructions fetched each cycle (Total)
system.cpu.fetch.rateDist::8                  1810121     24.67%    100.00% # Number of instructions fetched each cycle (Total)
system.cpu.fetch.rateDist::overflows                0      0.00%    100.00% # Number of instructions fetched each cycle (Total)
system.cpu.fetch.rateDist::min_value                0                       # Number of instructions fetched each cycle (Total)
system.cpu.fetch.rateDist::max_value                8                       # Number of instructions fetched each cycle (Total)
system.cpu.fetch.rateDist::total              7336662                       # Number of instructions fetched each cycle (Total)
system.cpu.fp_regfile_reads                  14681626                       # number of floating regfile reads
system.cpu.fp_regfile_writes                 12847295                       # number of floating regfile writes
system.cpu.idleCycles                           15028                       # Total number of cycles that the CPU has spent unscheduled due to idling
system.cpu.iew.branchMispredicts                  954                       # Number of branch mispredicts detected at execute
system.cpu.iew.exec_branches                   296872                       # Number of branches executed
system.cpu.iew.exec_nop                             0                       # number of nop insts executed
system.cpu.iew.exec_rate                     3.018041                       # Inst execution rate
system.cpu.iew.exec_refs                      6697026                       # number of memory reference insts executed
system.cpu.iew.exec_stores                    2099143                       # Number of stores executed
system.cpu.iew.exec_swp                             0                       # number of swp insts executed
system.cpu.iew.iewBlockCycles                    8354                       # Number of cycles IEW is blocking
system.cpu.iew.iewDispLoadInsts               4527043                       # Number of dispatched load instructions
system.cpu.iew.iewDispNonSpecInsts                 29                       # Number of dispatched non-speculative instructions
system.cpu.iew.iewDispSquashedInsts                35                       # Number of squashed instructions skipped by dispatch
system.cpu.iew.iewDispStoreInsts              2100268                       # Number of dispatched store instructions
system.cpu.iew.iewDispatchedInsts            22125080                       # Number of instructions dispatched to IQ
system.cpu.iew.iewExecLoadInsts               4597883                       # Number of load instructions executed
system.cpu.iew.iewExecSquashedInsts              2326                       # Number of squashed instructions skipped in execute
system.cpu.iew.iewExecutedInsts              22187702                       # Number of executed instructions
system.cpu.iew.iewIQFullEvents                    438                       # Number of times the IQ has become full, causing a stall
system.cpu.iew.iewIdleCycles                        0                       # Number of cycles IEW is idle
system.cpu.iew.iewLSQFullEvents                 93932                       # Number of times the LSQ has become full, causing a stall
system.cpu.iew.iewSquashCycles                    959                       # Number of cycles IEW is squashing
system.cpu.iew.iewUnblockCycles                 94723                       # Number of cycles IEW is unblocking
system.cpu.iew.lsq.thread0.blockedLoads             0                       # Number of blocked loads due to partial load-store forwarding
system.cpu.iew.lsq.thread0.cacheBlocked           145                       # Number of times an access to memory failed due to the cache being blocked
system.cpu.iew.lsq.thread0.forwLoads              365                       # Number of loads that had data forwarded from stores
system.cpu.iew.lsq.thread0.ignoredResponses            1                       # Number of memory responses ignored because the instruction is squashed
system.cpu.iew.lsq.thread0.invAddrLoads             0                       # Number of loads ignored due to an invalid address
system.cpu.iew.lsq.thread0.invAddrSwpfs             0                       # Number of software prefetches ignored due to an invalid address
system.cpu.iew.lsq.thread0.memOrderViolation          169                       # Number of memory ordering violations
system.cpu.iew.lsq.thread0.rescheduledLoads        72187                       # Number of loads that were rescheduled
system.cpu.iew.lsq.thread0.squashedLoads         3470                       # Number of loads squashed
system.cpu.iew.lsq.thread0.squashedStores         1772                       # Number of stores squashed
system.cpu.iew.memOrderViolationEvents            169                       # Number of memory order violations
system.cpu.iew.predictedNotTakenIncorrect          681                       # Number of branches that were predicted not taken incorrectly
system.cpu.iew.predictedTakenIncorrect            273                       # Number of branches that were predicted taken incorrectly
system.cpu.iew.wb_consumers                  19099541                       # num instructions consuming a value
system.cpu.iew.wb_count                      22114253                       # cumulative count of insts written-back
system.cpu.iew.wb_fanout                     0.701984                       # average fanout of values written-back
system.cpu.iew.wb_producers                  13407563                       # num instructions producing a value
system.cpu.iew.wb_rate                       3.008050                       # insts written-back per cycle
system.cpu.iew.wb_sent                       22114609                       # cumulative count of insts sent to commit
system.cpu.int_regfile_reads                 24729376                       # number of integer regfile reads
system.cpu.int_regfile_writes                 6837731                       # number of integer regfile writes
system.cpu.ipc                               1.953161                       # IPC: Instructions Per Cycle
system.cpu.ipc_total                         1.953161                       # IPC: Total IPC of All Threads
system.cpu.iq.FU_type_0::No_OpClass             33627      0.15%      0.15% # Type of FU issued
system.cpu.iq.FU_type_0::IntAlu               7067534     31.85%     32.00% # Type of FU issued
system.cpu.iq.FU_type_0::IntMult                    5      0.00%     32.00% # Type of FU issued
system.cpu.iq.FU_type_0::IntDiv                    23      0.00%     32.00% # Type of FU issued
system.cpu.iq.FU_type_0::FloatAdd             4196353     18.91%     50.91% # Type of FU issued
system.cpu.iq.FU_type_0::FloatCmp                   0      0.00%     50.91% # Type of FU issued
system.cpu.iq.FU_type_0::FloatCvt                   0      0.00%     50.91% # Type of FU issued
system.cpu.iq.FU_type_0::FloatMult                  0      0.00%     50.91% # Type of FU issued
system.cpu.iq.FU_type_0::FloatMultAcc               0      0.00%     50.91% # Type of FU issued
system.cpu.iq.FU_type_0::FloatDiv                   0      0.00%     50.91% # Type of FU issued
system.cpu.iq.FU_type_0::FloatMisc                  0      0.00%     50.91% # Type of FU issued
system.cpu.iq.FU_type_0::FloatSqrt                  0      0.00%     50.91% # Type of FU issued
system.cpu.iq.FU_type_0::SimdAdd                    0      0.00%     50.91% # Type of FU issued
system.cpu.iq.FU_type_0::SimdAddAcc                 0      0.00%     50.91% # Type of FU issued
system.cpu.iq.FU_type_0::SimdAlu                   64      0.00%     50.91% # Type of FU issued
system.cpu.iq.FU_type_0::SimdCmp                    0      0.00%     50.91% # Type of FU issued
system.cpu.iq.FU_type_0::SimdCvt                   42      0.00%     50.91% # Type of FU issued
system.cpu.iq.FU_type_0::SimdMisc                  56      0.00%     50.91% # Type of FU issued
system.cpu.iq.FU_type_0::SimdMult                   0      0.00%     50.91% # Type of FU issued
system.cpu.iq.FU_type_0::SimdMultAcc                0      0.00%     50.91% # Type of FU issued
system.cpu.iq.FU_type_0::SimdShift                  0      0.00%     50.91% # Type of FU issued
system.cpu.iq.FU_type_0::SimdShiftAcc               0      0.00%     50.91% # Type of FU issued
system.cpu.iq.FU_type_0::SimdDiv                    0      0.00%     50.91% # Type of FU issued
system.cpu.iq.FU_type_0::SimdSqrt                   0      0.00%     50.91% # Type of FU issued
system.cpu.iq.FU_type_0::SimdFloatAdd         2097269      9.45%     60.36% # Type of FU issued
system.cpu.iq.FU_type_0::SimdFloatAlu               0      0.00%     60.36% # Type of FU issued
system.cpu.iq.FU_type_0::SimdFloatCmp               0      0.00%     60.36% # Type of FU issued
system.cpu.iq.FU_type_0::SimdFloatCvt               0      0.00%     60.36% # Type of FU issued
system.cpu.iq.FU_type_0::SimdFloatDiv               0      0.00%     60.36% # Type of FU issued
system.cpu.iq.FU_type_0::SimdFloatMisc              0      0.00%     60.36% # Type of FU issued
system.cpu.iq.FU_type_0::SimdFloatMult        2097379      9.45%     69.82% # Type of FU issued
system.cpu.iq.FU_type_0::SimdFloatMultAcc            0      0.00%     69.82% # Type of FU issued
system.cpu.iq.FU_type_0::SimdFloatSqrt              0      0.00%     69.82% # Type of FU issued
system.cpu.iq.FU_type_0::SimdReduceAdd              0      0.00%     69.82% # Type of FU issued
system.cpu.iq.FU_type_0::SimdReduceAlu              0      0.00%     69.82% # Type of FU issued
system.cpu.iq.FU_type_0::SimdReduceCmp              0      0.00%     69.82% # Type of FU issued
system.cpu.iq.FU_type_0::SimdFloatReduceAdd            0      0.00%     69.82% # Type of FU issued
system.cpu.iq.FU_type_0::SimdFloatReduceCmp            0      0.00%     69.82% # Type of FU issued
system.cpu.iq.FU_type_0::SimdAes                    0      0.00%     69.82% # Type of FU issued
system.cpu.iq.FU_type_0::SimdAesMix                 0      0.00%     69.82% # Type of FU issued
system.cpu.iq.FU_type_0::SimdSha1Hash               0      0.00%     69.82% # Type of FU issued
system.cpu.iq.FU_type_0::SimdSha1Hash2              0      0.00%     69.82% # Type of FU issued
system.cpu.iq.FU_type_0::SimdSha256Hash             0      0.00%     69.82% # Type of FU issued
system.cpu.iq.FU_type_0::SimdSha256Hash2            0      0.00%     69.82% # Type of FU issued
system.cpu.iq.FU_type_0::SimdShaSigma2              0      0.00%     69.82% # Type of FU issued
system.cpu.iq.FU_type_0::SimdShaSigma3              0      0.00%     69.82% # Type of FU issued
system.cpu.iq.FU_type_0::SimdPredAlu                0      0.00%     69.82% # Type of FU issued
system.cpu.iq.FU_type_0::MemRead                68427      0.31%     70.13% # Type of FU issued
system.cpu.iq.FU_type_0::MemWrite                1909      0.01%     70.13% # Type of FU issued
system.cpu.iq.FU_type_0::FloatMemRead         4529938     20.41%     90.55% # Type of FU issued
system.cpu.iq.FU_type_0::FloatMemWrite        2097402      9.45%    100.00% # Type of FU issued
system.cpu.iq.FU_type_0::IprAccess                  0      0.00%    100.00% # Type of FU issued
system.cpu.iq.FU_type_0::InstPrefetch               0      0.00%    100.00% # Type of FU issued
system.cpu.iq.FU_type_0::total               22190028                       # Type of FU issued
system.cpu.iq.fp_alu_accesses                15042062                       # Number of floating point alu accesses
system.cpu.iq.fp_inst_queue_reads            30060661                       # Number of floating instruction queue reads
system.cpu.iq.fp_inst_queue_wakeup_accesses     14944624                       # Number of floating instruction queue wakeup accesses
system.cpu.iq.fp_inst_queue_writes           14954342                       # Number of floating instruction queue writes
system.cpu.iq.fu_busy_cnt                       49418                       # FU busy when requested
system.cpu.iq.fu_busy_rate                   0.002227                       # FU busy rate (busy events/executed inst)
system.cpu.iq.fu_full::No_OpClass                   0      0.00%      0.00% # attempts to use FU when none available
system.cpu.iq.fu_full::IntAlu                   25836     52.28%     52.28% # attempts to use FU when none available
system.cpu.iq.fu_full::IntMult                      0      0.00%     52.28% # attempts to use FU when none available
system.cpu.iq.fu_full::IntDiv                       0      0.00%     52.28% # attempts to use FU when none available
system.cpu.iq.fu_full::FloatAdd                  2204      4.46%     56.74% # attempts to use FU when none available
system.cpu.iq.fu_full::FloatCmp                     0      0.00%     56.74% # attempts to use FU when none available
system.cpu.iq.fu_full::FloatCvt                     0      0.00%     56.74% # attempts to use FU when none available
system.cpu.iq.fu_full::FloatMult                    0      0.00%     56.74% # attempts to use FU when none available
system.cpu.iq.fu_full::FloatMultAcc                 0      0.00%     56.74% # attempts to use FU when none available
system.cpu.iq.fu_full::FloatDiv                     0      0.00%     56.74% # attempts to use FU when none available
system.cpu.iq.fu_full::FloatMisc                    0      0.00%     56.74% # attempts to use FU when none available
system.cpu.iq.fu_full::FloatSqrt                    0      0.00%     56.74% # attempts to use FU when none available
system.cpu.iq.fu_full::SimdAdd                      0      0.00%     56.74% # attempts to use FU when none available
system.cpu.iq.fu_full::SimdAddAcc                   0      0.00%     56.74% # attempts to use FU when none available
system.cpu.iq.fu_full::SimdAlu                      4      0.01%     56.75% # attempts to use FU when none available
system.cpu.iq.fu_full::SimdCmp                      0      0.00%     56.75% # attempts to use FU when none available
system.cpu.iq.fu_full::SimdCvt                      2      0.00%     56.75% # attempts to use FU when none available
system.cpu.iq.fu_full::SimdMisc                     0      0.00%     56.75% # attempts to use FU when none available
system.cpu.iq.fu_full::SimdMult                     0      0.00%     56.75% # attempts to use FU when none available
system.cpu.iq.fu_full::SimdMultAcc                  0      0.00%     56.75% # attempts to use FU when none available
system.cpu.iq.fu_full::SimdShift                    0      0.00%     56.75% # attempts to use FU when none available
system.cpu.iq.fu_full::SimdShiftAcc                 0      0.00%     56.75% # attempts to use FU when none available
system.cpu.iq.fu_full::SimdDiv                      0      0.00%     56.75% # attempts to use FU when none available
system.cpu.iq.fu_full::SimdSqrt                     0      0.00%     56.75% # attempts to use FU when none available
system.cpu.iq.fu_full::SimdFloatAdd                 1      0.00%     56.75% # attempts to use FU when none available
system.cpu.iq.fu_full::SimdFloatAlu                 0      0.00%     56.75% # attempts to use FU when none available
system.cpu.iq.fu_full::SimdFloatCmp                 0      0.00%     56.75% # attempts to use FU when none available
system.cpu.iq.fu_full::SimdFloatCvt                 0      0.00%     56.75% # attempts to use FU when none available
system.cpu.iq.fu_full::SimdFloatDiv                 0      0.00%     56.75% # attempts to use FU when none available
system.cpu.iq.fu_full::SimdFloatMisc                0      0.00%     56.75% # attempts to use FU when none available
system.cpu.iq.fu_full::SimdFloatMult            21307     43.12%     99.87% # attempts to use FU when none available
system.cpu.iq.fu_full::SimdFloatMultAcc             0      0.00%     99.87% # attempts to use FU when none available
system.cpu.iq.fu_full::SimdFloatSqrt                0      0.00%     99.87% # attempts to use FU when none available
system.cpu.iq.fu_full::SimdReduceAdd                0      0.00%     99.87% # attempts to use FU when none available
system.cpu.iq.fu_full::SimdReduceAlu                0      0.00%     99.87% # attempts to use FU when none available
system.cpu.iq.fu_full::SimdReduceCmp                0      0.00%     99.87% # attempts to use FU when none available
system.cpu.iq.fu_full::SimdFloatReduceAdd            0      0.00%     99.87% # attempts to use FU when none available
system.cpu.iq.fu_full::SimdFloatReduceCmp            0      0.00%     99.87% # attempts to use FU when none available
system.cpu.iq.fu_full::SimdAes                      0      0.00%     99.87% # attempts to use FU when none available
system.cpu.iq.fu_full::SimdAesMix                   0      0.00%     99.87% # attempts to use FU when none available
system.cpu.iq.fu_full::SimdSha1Hash                 0      0.00%     99.87% # attempts to use FU when none available
system.cpu.iq.fu_full::SimdSha1Hash2                0      0.00%     99.87% # attempts to use FU when none available
system.cpu.iq.fu_full::SimdSha256Hash               0      0.00%     99.87% # attempts to use FU when none available
system.cpu.iq.fu_full::SimdSha256Hash2              0      0.00%     99.87% # attempts to use FU when none available
system.cpu.iq.fu_full::SimdShaSigma2                0      0.00%     99.87% # attempts to use FU when none available
system.cpu.iq.fu_full::SimdShaSigma3                0      0.00%     99.87% # attempts to use FU when none available
system.cpu.iq.fu_full::SimdPredAlu                  0      0.00%     99.87% # attempts to use FU when none available
system.cpu.iq.fu_full::MemRead                      6      0.01%     99.88% # attempts to use FU when none available
system.cpu.iq.fu_full::MemWrite                    27      0.05%     99.94% # attempts to use FU when none available
system.cpu.iq.fu_full::FloatMemRead                24      0.05%     99.99% # attempts to use FU when none available
system.cpu.iq.fu_full::FloatMemWrite                7      0.01%    100.00% # attempts to use FU when none available
system.cpu.iq.fu_full::IprAccess                    0      0.00%    100.00% # attempts to use FU when none available
system.cpu.iq.fu_full::InstPrefetch                 0      0.00%    100.00% # attempts to use FU when none available
system.cpu.iq.int_alu_accesses                7163757                       # Number of integer alu accesses
system.cpu.iq.int_inst_queue_reads           21705811                       # Number of integer instruction queue reads
system.cpu.iq.int_inst_queue_wakeup_accesses      7169629                       # Number of integer instruction queue wakeup accesses
system.cpu.iq.int_inst_queue_writes           7196984                       # Number of integer instruction queue writes
system.cpu.iq.iqInstsAdded                   22125019                       # Number of instructions added to the IQ (excludes non-spec)
system.cpu.iq.iqInstsIssued                  22190028                       # Number of instructions issued
system.cpu.iq.iqNonSpecInstsAdded                  61                       # Number of non-speculative instructions added to the IQ
system.cpu.iq.iqSquashedInstsExamined           26082                       # Number of squashed instructions iterated over during squash; mainly for profiling
system.cpu.iq.iqSquashedInstsIssued               336                       # Number of squashed instructions issued
system.cpu.iq.iqSquashedNonSpecRemoved             53                       # Number of squashed non-spec instructions that were removed
system.cpu.iq.iqSquashedOperandsExamined        28765                       # Number of squashed operands that are examined and possibly removed from graph
system.cpu.iq.issued_per_cycle::samples       7336662                       # Number of insts issued each cycle
system.cpu.iq.issued_per_cycle::mean         3.024540                       # Number of insts issued each cycle
system.cpu.iq.issued_per_cycle::stdev        2.038536                       # Number of insts issued each cycle
system.cpu.iq.issued_per_cycle::underflows            0      0.00%      0.00% # Number of insts issued each cycle
system.cpu.iq.issued_per_cycle::0              895179     12.20%     12.20% # Number of insts issued each cycle
system.cpu.iq.issued_per_cycle::1             1043682     14.23%     26.43% # Number of insts issued each cycle
system.cpu.iq.issued_per_cycle::2             1232821     16.80%     43.23% # Number of insts issued each cycle
system.cpu.iq.issued_per_cycle::3             1147772     15.64%     58.87% # Number of insts issued each cycle
system.cpu.iq.issued_per_cycle::4             1233858     16.82%     75.69% # Number of insts issued each cycle
system.cpu.iq.issued_per_cycle::5             1027077     14.00%     89.69% # Number of insts issued each cycle
system.cpu.iq.issued_per_cycle::6              366110      4.99%     94.68% # Number of insts issued each cycle
system.cpu.iq.issued_per_cycle::7              151393      2.06%     96.75% # Number of insts issued each cycle
system.cpu.iq.issued_per_cycle::8              238770      3.25%    100.00% # Number of insts issued each cycle
system.cpu.iq.issued_per_cycle::overflows            0      0.00%    100.00% # Number of insts issued each cycle
system.cpu.iq.issued_per_cycle::min_value            0                       # Number of insts issued each cycle
system.cpu.iq.issued_per_cycle::max_value            8                       # Number of insts issued each cycle
system.cpu.iq.issued_per_cycle::total         7336662                       # Number of insts issued each cycle
system.cpu.iq.rate                           3.018357                       # Inst issue rate
system.cpu.iq.vec_alu_accesses                      0                       # Number of vector alu accesses
system.cpu.iq.vec_inst_queue_reads                  0                       # Number of vector instruction queue reads
system.cpu.iq.vec_inst_queue_wakeup_accesses            0                       # Number of vector instruction queue wakeup accesses
system.cpu.iq.vec_inst_queue_writes                 0                       # Number of vector instruction queue writes
system.cpu.itb.rdAccesses                           0                       # TLB accesses on read requests
system.cpu.itb.rdMisses                             0                       # TLB misses on read requests
system.cpu.itb.wrAccesses                     1642613                       # TLB accesses on write requests
system.cpu.itb.wrMisses                            49                       # TLB misses on write requests
system.cpu.memDep0.conflictingLoads           2097469                       # Number of conflicting loads.
system.cpu.memDep0.conflictingStores          2092159                       # Number of conflicting stores.
system.cpu.memDep0.insertedLoads              4527043                       # Number of loads inserted to the mem dependence unit.
system.cpu.memDep0.insertedStores             2100268                       # Number of stores inserted to the mem dependence unit.
system.cpu.misc_regfile_reads                 7291890                       # number of misc regfile reads
system.cpu.misc_regfile_writes                      1                       # number of misc regfile writes
system.cpu.numCycles                          7351690                       # number of cpu cycles simulated
system.cpu.numWorkItemsCompleted                    0                       # number of work items this cpu completed
system.cpu.numWorkItemsStarted                      0                       # number of work items this cpu started
system.cpu.rename.BlockCycles                  109327                       # Number of cycles rename is blocking
system.cpu.rename.CommittedMaps              21379197                       # Number of HB maps that are committed
system.cpu.rename.IQFullEvents                 280759                       # Number of times rename has blocked due to IQ full
system.cpu.rename.IdleCycles                  1107308                       # Number of cycles rename is idle
system.cpu.rename.LQFullEvents                3293937                       # Number of times rename has blocked due to LQ full
system.cpu.rename.ROBFullEvents                   314                       # Number of times rename has blocked due to ROB full
system.cpu.rename.RenameLookups              48014199                       # Number of register rename lookups that rename has made
system.cpu.rename.RenamedInsts               22133834                       # Number of instructions processed by rename
system.cpu.rename.RenamedOperands            21414738                       # Number of destination operands rename has renamed
system.cpu.rename.RunCycles                   2281688                       # Number of cycles rename is running
system.cpu.rename.SQFullEvents                   3073                       # Number of times rename has blocked due to SQ full
system.cpu.rename.SquashCycles                    959                       # Number of cycles rename is squashing
system.cpu.rename.UnblockCycles               3836126                       # Number of cycles rename is unblocking
system.cpu.rename.UndoneMaps                    35541                       # Number of HB maps that are undone due to squashing
system.cpu.rename.fp_rename_lookups          14689025                       # Number of floating rename lookups
system.cpu.rename.int_rename_lookups         24610519                       # Number of integer rename lookups
system.cpu.rename.serializeStallCycles           1254                       # count of cycles rename stalled for serializing inst
system.cpu.rename.serializingInsts                 22                       # count of serializing insts renamed
system.cpu.rename.skidInsts                   7375821                       # count of insts added to the skid buffer
system.cpu.rename.tempSerializingInsts             17                       # count of temporary serializing insts renamed
system.cpu.rob.rob_reads                     27439206                       # The number of ROB reads
system.cpu.rob.rob_writes                    44254130                       # The number of ROB writes
system.cpu.timesIdled                             203                       # Number of times that the entire CPU went into an idle state and unscheduled itself
system.cpu.workload.numSyscalls                     7                       # Number of system calls
system.membus.snoop_filter.hit_multi_requests            0                       # Number of requests hitting in the snoop filter with multiple (>1) holders of the requested data.
system.membus.snoop_filter.hit_multi_snoops            0                       # Number of snoops hitting in the snoop filter with multiple (>1) holders of the requested data.
system.membus.snoop_filter.hit_single_requests           10                       # Number of requests hitting in the snoop filter with a single holder of the requested data.
system.membus.snoop_filter.hit_single_snoops            0                       # Number of snoops hitting in the snoop filter with a single holder of the requested data.
system.membus.snoop_filter.tot_requests          3581                       # Total number of requests made to the snoop filter.
system.membus.snoop_filter.tot_snoops               0                       # Total number of snoops made to the snoop filter.
system.tol2bus.snoop_filter.hit_multi_requests            1                       # Number of requests hitting in the snoop filter with multiple (>1) holders of the requested data.
system.tol2bus.snoop_filter.hit_multi_snoops            0                       # Number of snoops hitting in the snoop filter with multiple (>1) holders of the requested data.
system.tol2bus.snoop_filter.hit_single_requests        30474                       # Number of requests hitting in the snoop filter with a single holder of the requested data.
system.tol2bus.snoop_filter.hit_single_snoops           12                       # Number of snoops hitting in the snoop filter with a single holder of the requested data.
system.tol2bus.snoop_filter.tot_requests        62201                       # Total number of requests made to the snoop filter.
system.tol2bus.snoop_filter.tot_snoops             12                       # Total number of snoops made to the snoop filter.
system.membus.pwrStateResidencyTicks::UNDEFINED   7351689000                       # Cumulative time (in ticks) in various power states
system.membus.trans_dist::ReadResp               3479                       # Transaction distribution
system.membus.trans_dist::CleanEvict               10                       # Transaction distribution
system.membus.trans_dist::ReadExReq                92                       # Transaction distribution
system.membus.trans_dist::ReadExResp               92                       # Transaction distribution
system.membus.trans_dist::ReadSharedReq          3479                       # Transaction distribution
system.membus.pkt_count_system.l2.mem_side::system.mem_ctrls.port         7152                       # Packet count per connected master and slave (bytes)
system.membus.pkt_count_system.l2.mem_side::total         7152                       # Packet count per connected master and slave (bytes)
system.membus.pkt_count::total                   7152                       # Packet count per connected master and slave (bytes)
system.membus.pkt_size_system.l2.mem_side::system.mem_ctrls.port       228544                       # Cumulative packet size per connected master and slave (bytes)
system.membus.pkt_size_system.l2.mem_side::total       228544                       # Cumulative packet size per connected master and slave (bytes)
system.membus.pkt_size::total                  228544                       # Cumulative packet size per connected master and slave (bytes)
system.membus.snoops                                0                       # Total snoops (count)
system.membus.snoopTraffic                          0                       # Total snoop traffic (bytes)
system.membus.snoop_fanout::samples              3571                       # Request fanout histogram
system.membus.snoop_fanout::mean                    0                       # Request fanout histogram
system.membus.snoop_fanout::stdev                   0                       # Request fanout histogram
system.membus.snoop_fanout::underflows              0      0.00%      0.00% # Request fanout histogram
system.membus.snoop_fanout::0                    3571    100.00%    100.00% # Request fanout histogram
system.membus.snoop_fanout::1                       0      0.00%    100.00% # Request fanout histogram
system.membus.snoop_fanout::overflows               0      0.00%    100.00% # Request fanout histogram
system.membus.snoop_fanout::min_value               0                       # Request fanout histogram
system.membus.snoop_fanout::max_value               0                       # Request fanout histogram
system.membus.snoop_fanout::total                3571                       # Request fanout histogram
system.membus.reqLayer2.occupancy             3581000                       # Layer occupancy (ticks)
system.membus.reqLayer2.utilization               0.0                       # Layer utilization (%)
system.membus.respLayer1.occupancy           17856000                       # Layer occupancy (ticks)
system.membus.respLayer1.utilization              0.2                       # Layer utilization (%)
system.tol2bus.pwrStateResidencyTicks::UNDEFINED   7351689000                       # Cumulative time (in ticks) in various power states
system.tol2bus.trans_dist::ReadResp             31596                       # Transaction distribution
system.tol2bus.trans_dist::WritebackDirty        13084                       # Transaction distribution
system.tol2bus.trans_dist::WritebackClean          116                       # Transaction distribution
system.tol2bus.trans_dist::CleanEvict           17296                       # Transaction distribution
system.tol2bus.trans_dist::ReadExReq              130                       # Transaction distribution
system.tol2bus.trans_dist::ReadExResp             130                       # Transaction distribution
system.tol2bus.trans_dist::ReadCleanReq           345                       # Transaction distribution
system.tol2bus.trans_dist::ReadSharedReq        31252                       # Transaction distribution
system.tol2bus.pkt_count_system.cpu.icache.mem_side::system.l2.cpu_side          805                       # Packet count per connected master and slave (bytes)
system.tol2bus.pkt_count_system.cpu.dcache.mem_side::system.l2.cpu_side        93122                       # Packet count per connected master and slave (bytes)
system.tol2bus.pkt_count::total                 93927                       # Packet count per connected master and slave (bytes)
system.tol2bus.pkt_size_system.cpu.icache.mem_side::system.l2.cpu_side        29440                       # Cumulative packet size per connected master and slave (bytes)
system.tol2bus.pkt_size_system.cpu.dcache.mem_side::system.l2.cpu_side      2845824                       # Cumulative packet size per connected master and slave (bytes)
system.tol2bus.pkt_size::total                2875264                       # Cumulative packet size per connected master and slave (bytes)
system.tol2bus.snoops                              22                       # Total snoops (count)
system.tol2bus.snoopTraffic                         0                       # Total snoop traffic (bytes)
system.tol2bus.snoop_fanout::samples            31749                       # Request fanout histogram
system.tol2bus.snoop_fanout::mean            0.000409                       # Request fanout histogram
system.tol2bus.snoop_fanout::stdev           0.020231                       # Request fanout histogram
system.tol2bus.snoop_fanout::underflows             0      0.00%      0.00% # Request fanout histogram
system.tol2bus.snoop_fanout::0                  31736     99.96%     99.96% # Request fanout histogram
system.tol2bus.snoop_fanout::1                     13      0.04%    100.00% # Request fanout histogram
system.tol2bus.snoop_fanout::2                      0      0.00%    100.00% # Request fanout histogram
system.tol2bus.snoop_fanout::3                      0      0.00%    100.00% # Request fanout histogram
system.tol2bus.snoop_fanout::4                      0      0.00%    100.00% # Request fanout histogram
system.tol2bus.snoop_fanout::overflows              0      0.00%    100.00% # Request fanout histogram
system.tol2bus.snoop_fanout::min_value              0                       # Request fanout histogram
system.tol2bus.snoop_fanout::max_value              1                       # Request fanout histogram
system.tol2bus.snoop_fanout::total              31749                       # Request fanout histogram
system.tol2bus.reqLayer0.occupancy           88601000                       # Layer occupancy (ticks)
system.tol2bus.reqLayer0.utilization              1.2                       # Layer utilization (%)
system.tol2bus.respLayer1.occupancy          94146000                       # Layer occupancy (ticks)
system.tol2bus.respLayer1.utilization             1.3                       # Layer utilization (%)
system.tol2bus.respLayer0.occupancy           1032000                       # Layer occupancy (ticks)
system.tol2bus.respLayer0.utilization             0.0                       # Layer utilization (%)
system.voltage_domain.voltage                       1                       # Voltage in Volts
system.clk_domain.clock                          1000                       # Clock period in ticks
system.l2.pwrStateResidencyTicks::UNDEFINED   7351689000                       # Cumulative time (in ticks) in various power states
system.l2.demand_hits::.cpu.inst                   21                       # number of demand (read+write) hits
system.l2.demand_hits::.cpu.data                28134                       # number of demand (read+write) hits
system.l2.demand_hits::total                    28155                       # number of demand (read+write) hits
system.l2.overall_hits::.cpu.inst                  21                       # number of overall hits
system.l2.overall_hits::.cpu.data               28134                       # number of overall hits
system.l2.overall_hits::total                   28155                       # number of overall hits
system.l2.demand_misses::.cpu.inst                324                       # number of demand (read+write) misses
system.l2.demand_misses::.cpu.data               3248                       # number of demand (read+write) misses
system.l2.demand_misses::total                   3572                       # number of demand (read+write) misses
system.l2.overall_misses::.cpu.inst               324                       # number of overall misses
system.l2.overall_misses::.cpu.data              3248                       # number of overall misses
system.l2.overall_misses::total                  3572                       # number of overall misses
system.l2.demand_miss_latency::.cpu.inst     35108000                       # number of demand (read+write) miss cycles
system.l2.demand_miss_latency::.cpu.data    367759000                       # number of demand (read+write) miss cycles
system.l2.demand_miss_latency::total        402867000                       # number of demand (read+write) miss cycles
system.l2.overall_miss_latency::.cpu.inst     35108000                       # number of overall miss cycles
system.l2.overall_miss_latency::.cpu.data    367759000                       # number of overall miss cycles
system.l2.overall_miss_latency::total       402867000                       # number of overall miss cycles
system.l2.demand_accesses::.cpu.inst              345                       # number of demand (read+write) accesses
system.l2.demand_accesses::.cpu.data            31382                       # number of demand (read+write) accesses
system.l2.demand_accesses::total                31727                       # number of demand (read+write) accesses
system.l2.overall_accesses::.cpu.inst             345                       # number of overall (read+write) accesses
system.l2.overall_accesses::.cpu.data           31382                       # number of overall (read+write) accesses
system.l2.overall_accesses::total               31727                       # number of overall (read+write) accesses
system.l2.demand_miss_rate::.cpu.inst        0.939130                       # miss rate for demand accesses
system.l2.demand_miss_rate::.cpu.data        0.103499                       # miss rate for demand accesses
system.l2.demand_miss_rate::total            0.112585                       # miss rate for demand accesses
system.l2.overall_miss_rate::.cpu.inst       0.939130                       # miss rate for overall accesses
system.l2.overall_miss_rate::.cpu.data       0.103499                       # miss rate for overall accesses
system.l2.overall_miss_rate::total           0.112585                       # miss rate for overall accesses
system.l2.demand_avg_miss_latency::.cpu.inst 108358.024691                       # average overall miss latency
system.l2.demand_avg_miss_latency::.cpu.data 113226.293103                       # average overall miss latency
system.l2.demand_avg_miss_latency::total 112784.714446                       # average overall miss latency
system.l2.overall_avg_miss_latency::.cpu.inst 108358.024691                       # average overall miss latency
system.l2.overall_avg_miss_latency::.cpu.data 113226.293103                       # average overall miss latency
system.l2.overall_avg_miss_latency::total 112784.714446                       # average overall miss latency
system.l2.blocked_cycles::no_mshrs                  0                       # number of cycles access was blocked
system.l2.blocked_cycles::no_targets                0                       # number of cycles access was blocked
system.l2.blocked::no_mshrs                         0                       # number of cycles access was blocked
system.l2.blocked::no_targets                       0                       # number of cycles access was blocked
system.l2.avg_blocked_cycles::no_mshrs            nan                       # average number of cycles each access was blocked
system.l2.avg_blocked_cycles::no_targets          nan                       # average number of cycles each access was blocked
system.l2.demand_mshr_misses::.cpu.inst           324                       # number of demand (read+write) MSHR misses
system.l2.demand_mshr_misses::.cpu.data          3248                       # number of demand (read+write) MSHR misses
system.l2.demand_mshr_misses::total              3572                       # number of demand (read+write) MSHR misses
system.l2.overall_mshr_misses::.cpu.inst          324                       # number of overall MSHR misses
system.l2.overall_mshr_misses::.cpu.data         3248                       # number of overall MSHR misses
system.l2.overall_mshr_misses::total             3572                       # number of overall MSHR misses
system.l2.demand_mshr_miss_latency::.cpu.inst     28648000                       # number of demand (read+write) MSHR miss cycles
system.l2.demand_mshr_miss_latency::.cpu.data    302799000                       # number of demand (read+write) MSHR miss cycles
system.l2.demand_mshr_miss_latency::total    331447000                       # number of demand (read+write) MSHR miss cycles
system.l2.overall_mshr_miss_latency::.cpu.inst     28648000                       # number of overall MSHR miss cycles
system.l2.overall_mshr_miss_latency::.cpu.data    302799000                       # number of overall MSHR miss cycles
system.l2.overall_mshr_miss_latency::total    331447000                       # number of overall MSHR miss cycles
system.l2.demand_mshr_miss_rate::.cpu.inst     0.939130                       # mshr miss rate for demand accesses
system.l2.demand_mshr_miss_rate::.cpu.data     0.103499                       # mshr miss rate for demand accesses
system.l2.demand_mshr_miss_rate::total       0.112585                       # mshr miss rate for demand accesses
system.l2.overall_mshr_miss_rate::.cpu.inst     0.939130                       # mshr miss rate for overall accesses
system.l2.overall_mshr_miss_rate::.cpu.data     0.103499                       # mshr miss rate for overall accesses
system.l2.overall_mshr_miss_rate::total      0.112585                       # mshr miss rate for overall accesses
system.l2.demand_avg_mshr_miss_latency::.cpu.inst 88419.753086                       # average overall mshr miss latency
system.l2.demand_avg_mshr_miss_latency::.cpu.data 93226.293103                       # average overall mshr miss latency
system.l2.demand_avg_mshr_miss_latency::total 92790.313550                       # average overall mshr miss latency
system.l2.overall_avg_mshr_miss_latency::.cpu.inst 88419.753086                       # average overall mshr miss latency
system.l2.overall_avg_mshr_miss_latency::.cpu.data 93226.293103                       # average overall mshr miss latency
system.l2.overall_avg_mshr_miss_latency::total 92790.313550                       # average overall mshr miss latency
system.l2.replacements                             22                       # number of replacements
system.l2.WritebackDirty_hits::.writebacks        13084                       # number of WritebackDirty hits
system.l2.WritebackDirty_hits::total            13084                       # number of WritebackDirty hits
system.l2.WritebackDirty_accesses::.writebacks        13084                       # number of WritebackDirty accesses(hits+misses)
system.l2.WritebackDirty_accesses::total        13084                       # number of WritebackDirty accesses(hits+misses)
system.l2.WritebackClean_hits::.writebacks          116                       # number of WritebackClean hits
system.l2.WritebackClean_hits::total              116                       # number of WritebackClean hits
system.l2.WritebackClean_accesses::.writebacks          116                       # number of WritebackClean accesses(hits+misses)
system.l2.WritebackClean_accesses::total          116                       # number of WritebackClean accesses(hits+misses)
system.l2.ReadExReq_hits::.cpu.data                38                       # number of ReadExReq hits
system.l2.ReadExReq_hits::total                    38                       # number of ReadExReq hits
system.l2.ReadExReq_misses::.cpu.data              92                       # number of ReadExReq misses
system.l2.ReadExReq_misses::total                  92                       # number of ReadExReq misses
system.l2.ReadExReq_miss_latency::.cpu.data     10916000                       # number of ReadExReq miss cycles
system.l2.ReadExReq_miss_latency::total      10916000                       # number of ReadExReq miss cycles
system.l2.ReadExReq_accesses::.cpu.data           130                       # number of ReadExReq accesses(hits+misses)
system.l2.ReadExReq_accesses::total               130                       # number of ReadExReq accesses(hits+misses)
system.l2.ReadExReq_miss_rate::.cpu.data     0.707692                       # miss rate for ReadExReq accesses
system.l2.ReadExReq_miss_rate::total         0.707692                       # miss rate for ReadExReq accesses
system.l2.ReadExReq_avg_miss_latency::.cpu.data 118652.173913                       # average ReadExReq miss latency
system.l2.ReadExReq_avg_miss_latency::total 118652.173913                       # average ReadExReq miss latency
system.l2.ReadExReq_mshr_misses::.cpu.data           92                       # number of ReadExReq MSHR misses
system.l2.ReadExReq_mshr_misses::total             92                       # number of ReadExReq MSHR misses
system.l2.ReadExReq_mshr_miss_latency::.cpu.data      9076000                       # number of ReadExReq MSHR miss cycles
system.l2.ReadExReq_mshr_miss_latency::total      9076000                       # number of ReadExReq MSHR miss cycles
system.l2.ReadExReq_mshr_miss_rate::.cpu.data     0.707692                       # mshr miss rate for ReadExReq accesses
system.l2.ReadExReq_mshr_miss_rate::total     0.707692                       # mshr miss rate for ReadExReq accesses
system.l2.ReadExReq_avg_mshr_miss_latency::.cpu.data 98652.173913                       # average ReadExReq mshr miss latency
system.l2.ReadExReq_avg_mshr_miss_latency::total 98652.173913                       # average ReadExReq mshr miss latency
system.l2.ReadCleanReq_hits::.cpu.inst             21                       # number of ReadCleanReq hits
system.l2.ReadCleanReq_hits::total                 21                       # number of ReadCleanReq hits
system.l2.ReadCleanReq_misses::.cpu.inst          324                       # number of ReadCleanReq misses
system.l2.ReadCleanReq_misses::total              324                       # number of ReadCleanReq misses
system.l2.ReadCleanReq_miss_latency::.cpu.inst     35108000                       # number of ReadCleanReq miss cycles
system.l2.ReadCleanReq_miss_latency::total     35108000                       # number of ReadCleanReq miss cycles
system.l2.ReadCleanReq_accesses::.cpu.inst          345                       # number of ReadCleanReq accesses(hits+misses)
system.l2.ReadCleanReq_accesses::total            345                       # number of ReadCleanReq accesses(hits+misses)
system.l2.ReadCleanReq_miss_rate::.cpu.inst     0.939130                       # miss rate for ReadCleanReq accesses
system.l2.ReadCleanReq_miss_rate::total      0.939130                       # miss rate for ReadCleanReq accesses
system.l2.ReadCleanReq_avg_miss_latency::.cpu.inst 108358.024691                       # average ReadCleanReq miss latency
system.l2.ReadCleanReq_avg_miss_latency::total 108358.024691                       # average ReadCleanReq miss latency
system.l2.ReadCleanReq_mshr_misses::.cpu.inst          324                       # number of ReadCleanReq MSHR misses
system.l2.ReadCleanReq_mshr_misses::total          324                       # number of ReadCleanReq MSHR misses
system.l2.ReadCleanReq_mshr_miss_latency::.cpu.inst     28648000                       # number of ReadCleanReq MSHR miss cycles
system.l2.ReadCleanReq_mshr_miss_latency::total     28648000                       # number of ReadCleanReq MSHR miss cycles
system.l2.ReadCleanReq_mshr_miss_rate::.cpu.inst     0.939130                       # mshr miss rate for ReadCleanReq accesses
system.l2.ReadCleanReq_mshr_miss_rate::total     0.939130                       # mshr miss rate for ReadCleanReq accesses
system.l2.ReadCleanReq_avg_mshr_miss_latency::.cpu.inst 88419.753086                       # average ReadCleanReq mshr miss latency
system.l2.ReadCleanReq_avg_mshr_miss_latency::total 88419.753086                       # average ReadCleanReq mshr miss latency
system.l2.ReadSharedReq_hits::.cpu.data         28096                       # number of ReadSharedReq hits
system.l2.ReadSharedReq_hits::total             28096                       # number of ReadSharedReq hits
system.l2.ReadSharedReq_misses::.cpu.data         3156                       # number of ReadSharedReq misses
system.l2.ReadSharedReq_misses::total            3156                       # number of ReadSharedReq misses
system.l2.ReadSharedReq_miss_latency::.cpu.data    356843000                       # number of ReadSharedReq miss cycles
system.l2.ReadSharedReq_miss_latency::total    356843000                       # number of ReadSharedReq miss cycles
system.l2.ReadSharedReq_accesses::.cpu.data        31252                       # number of ReadSharedReq accesses(hits+misses)
system.l2.ReadSharedReq_accesses::total         31252                       # number of ReadSharedReq accesses(hits+misses)
system.l2.ReadSharedReq_miss_rate::.cpu.data     0.100986                       # miss rate for ReadSharedReq accesses
system.l2.ReadSharedReq_miss_rate::total     0.100986                       # miss rate for ReadSharedReq accesses
system.l2.ReadSharedReq_avg_miss_latency::.cpu.data 113068.124208                       # average ReadSharedReq miss latency
system.l2.ReadSharedReq_avg_miss_latency::total 113068.124208                       # average ReadSharedReq miss latency
system.l2.ReadSharedReq_mshr_misses::.cpu.data         3156                       # number of ReadSharedReq MSHR misses
system.l2.ReadSharedReq_mshr_misses::total         3156                       # number of ReadSharedReq MSHR misses
system.l2.ReadSharedReq_mshr_miss_latency::.cpu.data    293723000                       # number of ReadSharedReq MSHR miss cycles
system.l2.ReadSharedReq_mshr_miss_latency::total    293723000                       # number of ReadSharedReq MSHR miss cycles
system.l2.ReadSharedReq_mshr_miss_rate::.cpu.data     0.100986                       # mshr miss rate for ReadSharedReq accesses
system.l2.ReadSharedReq_mshr_miss_rate::total     0.100986                       # mshr miss rate for ReadSharedReq accesses
system.l2.ReadSharedReq_avg_mshr_miss_latency::.cpu.data 93068.124208                       # average ReadSharedReq mshr miss latency
system.l2.ReadSharedReq_avg_mshr_miss_latency::total 93068.124208                       # average ReadSharedReq mshr miss latency
system.l2.tags.pwrStateResidencyTicks::UNDEFINED   7351689000                       # Cumulative time (in ticks) in various power states
system.l2.tags.tagsinuse                  2647.919231                       # Cycle average of tags in use
system.l2.tags.total_refs                       62199                       # Total number of references to valid blocks.
system.l2.tags.sampled_refs                      3575                       # Sample count of references to valid blocks.
system.l2.tags.avg_refs                     17.398322                       # Average number of references to valid blocks.
system.l2.tags.warmup_cycle                     91000                       # Cycle when the warmup percentage was hit.
system.l2.tags.occ_blocks::.writebacks       0.001213                       # Average occupied blocks per requestor
system.l2.tags.occ_blocks::.cpu.inst       290.518905                       # Average occupied blocks per requestor
system.l2.tags.occ_blocks::.cpu.data      2357.399113                       # Average occupied blocks per requestor
system.l2.tags.occ_percent::.writebacks      0.000000                       # Average percentage of cache occupancy
system.l2.tags.occ_percent::.cpu.inst        0.070927                       # Average percentage of cache occupancy
system.l2.tags.occ_percent::.cpu.data        0.575537                       # Average percentage of cache occupancy
system.l2.tags.occ_percent::total            0.646465                       # Average percentage of cache occupancy
system.l2.tags.occ_task_id_blocks::1024          3553                       # Occupied blocks per task id
system.l2.tags.age_task_id_blocks_1024::0           45                       # Occupied blocks per task id
system.l2.tags.age_task_id_blocks_1024::2           24                       # Occupied blocks per task id
system.l2.tags.age_task_id_blocks_1024::3         3484                       # Occupied blocks per task id
system.l2.tags.occ_task_id_percent::1024     0.867432                       # Percentage of cache occupancy per task id
system.l2.tags.tag_accesses                    501175                       # Number of tag accesses
system.l2.tags.data_accesses                   501175                       # Number of data accesses
system.cpu_voltage_domain.voltage                   1                       # Voltage in Volts
system.mem_ctrls.pwrStateResidencyTicks::UNDEFINED   7351689000                       # Cumulative time (in ticks) in various power states
system.mem_ctrls.bytes_read::.cpu.inst          20672                       # Number of bytes read from this memory
system.mem_ctrls.bytes_read::.cpu.data         207872                       # Number of bytes read from this memory
system.mem_ctrls.bytes_read::total             228544                       # Number of bytes read from this memory
system.mem_ctrls.bytes_inst_read::.cpu.inst        20672                       # Number of instructions bytes read from this memory
system.mem_ctrls.bytes_inst_read::total         20672                       # Number of instructions bytes read from this memory
system.mem_ctrls.num_reads::.cpu.inst             323                       # Number of read requests responded to by this memory
system.mem_ctrls.num_reads::.cpu.data            3248                       # Number of read requests responded to by this memory
system.mem_ctrls.num_reads::total                3571                       # Number of read requests responded to by this memory
system.mem_ctrls.bw_read::.cpu.inst           2811871                       # Total read bandwidth from this memory (bytes/s)
system.mem_ctrls.bw_read::.cpu.data          28275407                       # Total read bandwidth from this memory (bytes/s)
system.mem_ctrls.bw_read::total              31087278                       # Total read bandwidth from this memory (bytes/s)
system.mem_ctrls.bw_inst_read::.cpu.inst      2811871                       # Instruction read bandwidth from this memory (bytes/s)
system.mem_ctrls.bw_inst_read::total          2811871                       # Instruction read bandwidth from this memory (bytes/s)
system.mem_ctrls.bw_total::.cpu.inst          2811871                       # Total bandwidth to/from this memory (bytes/s)
system.mem_ctrls.bw_total::.cpu.data         28275407                       # Total bandwidth to/from this memory (bytes/s)
system.mem_ctrls.bw_total::total             31087278                       # Total bandwidth to/from this memory (bytes/s)
system.mem_ctrls.avgPriority_.cpu.inst::samples       646.00                       # Average QoS priority value for accepted requests
system.mem_ctrls.avgPriority_.cpu.data::samples      6496.00                       # Average QoS priority value for accepted requests
system.mem_ctrls.priorityMinLatency      0.000000019000                       # per QoS priority minimum request to response latency (s)
system.mem_ctrls.priorityMaxLatency      0.000000758000                       # per QoS priority maximum request to response latency (s)
system.mem_ctrls.numReadWriteTurnArounds            0                       # Number of turnarounds from READ to WRITE
system.mem_ctrls.numWriteReadTurnArounds            0                       # Number of turnarounds from WRITE to READ
system.mem_ctrls.numStayReadState               12588                       # Number of times bus staying in READ state
system.mem_ctrls.numStayWriteState                  0                       # Number of times bus staying in WRITE state
system.mem_ctrls.readReqs                        3571                       # Number of read requests accepted
system.mem_ctrls.writeReqs                          0                       # Number of write requests accepted
system.mem_ctrls.readBursts                      7142                       # Number of DRAM read bursts, including those serviced by the write queue
system.mem_ctrls.writeBursts                        0                       # Number of DRAM write bursts, including those merged in the write queue
system.mem_ctrls.servicedByWrQ                      0                       # Number of DRAM read bursts serviced by the write queue
system.mem_ctrls.mergedWrBursts                     0                       # Number of DRAM write bursts merged with an existing one
system.mem_ctrls.neitherReadNorWriteReqs            0                       # Number of requests that are neither read nor write
system.mem_ctrls.perBankRdBursts::0               462                       # Per bank write bursts
system.mem_ctrls.perBankRdBursts::1               436                       # Per bank write bursts
system.mem_ctrls.perBankRdBursts::2               418                       # Per bank write bursts
system.mem_ctrls.perBankRdBursts::3               446                       # Per bank write bursts
system.mem_ctrls.perBankRdBursts::4               462                       # Per bank write bursts
system.mem_ctrls.perBankRdBursts::5               464                       # Per bank write bursts
system.mem_ctrls.perBankRdBursts::6               470                       # Per bank write bursts
system.mem_ctrls.perBankRdBursts::7               492                       # Per bank write bursts
system.mem_ctrls.perBankRdBursts::8               466                       # Per bank write bursts
system.mem_ctrls.perBankRdBursts::9               476                       # Per bank write bursts
system.mem_ctrls.perBankRdBursts::10              454                       # Per bank write bursts
system.mem_ctrls.perBankRdBursts::11              444                       # Per bank write bursts
system.mem_ctrls.perBankRdBursts::12              416                       # Per bank write bursts
system.mem_ctrls.perBankRdBursts::13              416                       # Per bank write bursts
system.mem_ctrls.perBankRdBursts::14              418                       # Per bank write bursts
system.mem_ctrls.perBankRdBursts::15              402                       # Per bank write bursts
system.mem_ctrls.perBankWrBursts::0                 0                       # Per bank write bursts
system.mem_ctrls.perBankWrBursts::1                 0                       # Per bank write bursts
system.mem_ctrls.perBankWrBursts::2                 0                       # Per bank write bursts
system.mem_ctrls.perBankWrBursts::3                 0                       # Per bank write bursts
system.mem_ctrls.perBankWrBursts::4                 0                       # Per bank write bursts
system.mem_ctrls.perBankWrBursts::5                 0                       # Per bank write bursts
system.mem_ctrls.perBankWrBursts::6                 0                       # Per bank write bursts
system.mem_ctrls.perBankWrBursts::7                 0                       # Per bank write bursts
system.mem_ctrls.perBankWrBursts::8                 0                       # Per bank write bursts
system.mem_ctrls.perBankWrBursts::9                 0                       # Per bank write bursts
system.mem_ctrls.perBankWrBursts::10                0                       # Per bank write bursts
system.mem_ctrls.perBankWrBursts::11                0                       # Per bank write bursts
system.mem_ctrls.perBankWrBursts::12                0                       # Per bank write bursts
system.mem_ctrls.perBankWrBursts::13                0                       # Per bank write bursts
system.mem_ctrls.perBankWrBursts::14                0                       # Per bank write bursts
system.mem_ctrls.perBankWrBursts::15                0                       # Per bank write bursts
system.mem_ctrls.avgRdQLen                       2.57                       # Average read queue length when enqueuing
system.mem_ctrls.avgWrQLen                       0.00                       # Average write queue length when enqueuing
system.mem_ctrls.totQLat                    148364000                       # Total ticks spent queuing
system.mem_ctrls.totBusLat                   28568000                       # Total ticks spent in databus transfers
system.mem_ctrls.totMemAccLat               284062000                       # Total ticks spent from burst creation until serviced by the DRAM
system.mem_ctrls.avgQLat                     20773.45                       # Average queueing delay per DRAM burst
system.mem_ctrls.avgBusLat                    4000.00                       # Average bus latency per DRAM burst
[...]
system.cpu.icache.ReadReq_avg_mshr_miss_latency::total 106066.666667                       # average ReadReq mshr miss latency
system.cpu.icache.tags.pwrStateResidencyTicks::UNDEFINED   7351689000                       # Cumulative time (in ticks) in various power states
system.cpu.icache.tags.tagsinuse           216.547198                       # Cycle average of tags in use
system.cpu.icache.tags.total_refs             1642491                       # Total number of references to valid blocks.
system.cpu.icache.tags.sampled_refs               344                       # Sample count of references to valid blocks.
system.cpu.icache.tags.avg_refs           4774.683140                       # Average number of references to valid blocks.
system.cpu.icache.tags.warmup_cycle            112000                       # Cycle when the warmup percentage was hit.
system.cpu.icache.tags.occ_blocks::.cpu.inst   216.547198                       # Average occupied blocks per requestor
system.cpu.icache.tags.occ_percent::.cpu.inst     0.845887                       # Average percentage of cache occupancy
system.cpu.icache.tags.occ_percent::total     0.845887                       # Average percentage of cache occupancy
system.cpu.icache.tags.occ_task_id_blocks::1024          228                       # Occupied blocks per task id
system.cpu.icache.tags.age_task_id_blocks_1024::0           23                       # Occupied blocks per task id
system.cpu.icache.tags.age_task_id_blocks_1024::3          205                       # Occupied blocks per task id
system.cpu.icache.tags.occ_task_id_percent::1024     0.890625                       # Percentage of cache occupancy per task id
system.cpu.icache.tags.tag_accesses           3285536                       # Number of tag accesses
system.cpu.icache.tags.data_accesses          3285536                       # Number of data accesses
system.cpu.dtb.walker.pwrStateResidencyTicks::UNDEFINED   7351689000                       # Cumulative time (in ticks) in various power states
system.cpu.interrupts.clk_domain.clock          16000                       # Clock period in ticks
system.cpu.itb_walker_cache.pwrStateResidencyTicks::UNDEFINED   7351689000                       # Cumulative time (in ticks) in various power states
system.cpu.itb_walker_cache.blocked_cycles::no_mshrs            0                       # number of cycles access was blocked
system.cpu.itb_walker_cache.blocked_cycles::no_targets            0                       # number of cycles access was blocked
system.cpu.itb_walker_cache.blocked::no_mshrs            0                       # number of cycles access was blocked
system.cpu.itb_walker_cache.blocked::no_targets            0                       # number of cycles access was blocked
system.cpu.itb_walker_cache.avg_blocked_cycles::no_mshrs          nan                       # average number of cycles each access was blocked
system.cpu.itb_walker_cache.avg_blocked_cycles::no_targets          nan                       # average number of cycles each access was blocked
system.cpu.itb_walker_cache.replacements            0                       # number of replacements
system.cpu.itb_walker_cache.tags.pwrStateResidencyTicks::UNDEFINED   7351689000                       # Cumulative time (in ticks) in various power states
system.cpu.itb_walker_cache.tags.tagsinuse            0                       # Cycle average of tags in use
system.cpu.itb_walker_cache.tags.total_refs            0                       # Total number of references to valid blocks.
system.cpu.itb_walker_cache.tags.sampled_refs            0                       # Sample count of references to valid blocks.
system.cpu.itb_walker_cache.tags.avg_refs          nan                       # Average number of references to valid blocks.
system.cpu.itb_walker_cache.tags.warmup_cycle            0                       # Cycle when the warmup percentage was hit.
system.cpu.itb_walker_cache.tags.tag_accesses            0                       # Number of tag accesses
system.cpu.itb_walker_cache.tags.data_accesses            0                       # Number of data accesses
system.cpu.itb.walker.pwrStateResidencyTicks::UNDEFINED   7351689000                       # Cumulative time (in ticks) in various power states
system.cpu.dtb_walker_cache.pwrStateResidencyTicks::UNDEFINED   7351689000                       # Cumulative time (in ticks) in various power states
system.cpu.dtb_walker_cache.blocked_cycles::no_mshrs            0                       # number of cycles access was blocked
system.cpu.dtb_walker_cache.blocked_cycles::no_targets            0                       # number of cycles access was blocked
system.cpu.dtb_walker_cache.blocked::no_mshrs            0                       # number of cycles access was blocked
system.cpu.dtb_walker_cache.blocked::no_targets            0                       # number of cycles access was blocked
system.cpu.dtb_walker_cache.avg_blocked_cycles::no_mshrs          nan                       # average number of cycles each access was blocked
system.cpu.dtb_walker_cache.avg_blocked_cycles::no_targets          nan                       # average number of cycles each access was blocked
system.cpu.dtb_walker_cache.replacements            0                       # number of replacements
system.cpu.dtb_walker_cache.tags.pwrStateResidencyTicks::UNDEFINED   7351689000                       # Cumulative time (in ticks) in various power states
system.cpu.dtb_walker_cache.tags.tagsinuse            0                       # Cycle average of tags in use
system.cpu.dtb_walker_cache.tags.total_refs            0                       # Total number of references to valid blocks.
system.cpu.dtb_walker_cache.tags.sampled_refs            0                       # Sample count of references to valid blocks.
system.cpu.dtb_walker_cache.tags.avg_refs          nan                       # Average number of references to valid blocks.
system.cpu.dtb_walker_cache.tags.warmup_cycle            0                       # Cycle when the warmup percentage was hit.
system.cpu.dtb_walker_cache.tags.tag_accesses            0                       # Number of tag accesses
system.cpu.dtb_walker_cache.tags.data_accesses            0                       # Number of data accesses
system.cpu.dcache.pwrStateResidencyTicks::UNDEFINED   7351689000                       # Cumulative time (in ticks) in various power states
system.cpu.dcache.demand_hits::.cpu.data      6827990                       # number of demand (read+write) hits
system.cpu.dcache.demand_hits::total          6827990                       # number of demand (read+write) hits
system.cpu.dcache.overall_hits::.cpu.data      6827990                       # number of overall hits
system.cpu.dcache.overall_hits::total         6827990                       # number of overall hits
system.cpu.dcache.demand_misses::.cpu.data        57636                       # number of demand (read+write) misses
system.cpu.dcache.demand_misses::total          57636                       # number of demand (read+write) misses
system.cpu.dcache.overall_misses::.cpu.data        57636                       # number of overall misses
system.cpu.dcache.overall_misses::total         57636                       # number of overall misses
system.cpu.dcache.demand_miss_latency::.cpu.data   1750299999                       # number of demand (read+write) miss cycles
system.cpu.dcache.demand_miss_latency::total   1750299999                       # number of demand (read+write) miss cycles
system.cpu.dcache.overall_miss_latency::.cpu.data   1750299999                       # number of overall miss cycles
system.cpu.dcache.overall_miss_latency::total   1750299999                       # number of overall miss cycles
system.cpu.dcache.demand_accesses::.cpu.data      6885626                       # number of demand (read+write) accesses
system.cpu.dcache.demand_accesses::total      6885626                       # number of demand (read+write) accesses
system.cpu.dcache.overall_accesses::.cpu.data      6885626                       # number of overall (read+write) accesses
system.cpu.dcache.overall_accesses::total      6885626                       # number of overall (read+write) accesses
system.cpu.dcache.demand_miss_rate::.cpu.data     0.008370                       # miss rate for demand accesses
system.cpu.dcache.demand_miss_rate::total     0.008370                       # miss rate for demand accesses
system.cpu.dcache.overall_miss_rate::.cpu.data     0.008370                       # miss rate for overall accesses
system.cpu.dcache.overall_miss_rate::total     0.008370                       # miss rate for overall accesses
system.cpu.dcache.demand_avg_miss_latency::.cpu.data 30368.172653                       # average overall miss latency
system.cpu.dcache.demand_avg_miss_latency::total 30368.172653                       # average overall miss latency
system.cpu.dcache.overall_avg_miss_latency::.cpu.data 30368.172653                       # average overall miss latency
system.cpu.dcache.overall_avg_miss_latency::total 30368.172653                       # average overall miss latency
system.cpu.dcache.blocked_cycles::no_mshrs         1542                       # number of cycles access was blocked
system.cpu.dcache.blocked_cycles::no_targets            0                       # number of cycles access was blocked
system.cpu.dcache.blocked::no_mshrs               161                       # number of cycles access was blocked
system.cpu.dcache.blocked::no_targets               0                       # number of cycles access was blocked
system.cpu.dcache.avg_blocked_cycles::no_mshrs     9.577640                       # average number of cycles each access was blocked
system.cpu.dcache.avg_blocked_cycles::no_targets          nan                       # average number of cycles each access was blocked
system.cpu.dcache.writebacks::.writebacks        13084                       # number of writebacks
system.cpu.dcache.writebacks::total             13084                       # number of writebacks
system.cpu.dcache.demand_mshr_hits::.cpu.data        26254                       # number of demand (read+write) MSHR hits
system.cpu.dcache.demand_mshr_hits::total        26254                       # number of demand (read+write) MSHR hits
system.cpu.dcache.overall_mshr_hits::.cpu.data        26254                       # number of overall MSHR hits
system.cpu.dcache.overall_mshr_hits::total        26254                       # number of overall MSHR hits
system.cpu.dcache.demand_mshr_misses::.cpu.data        31382                       # number of demand (read+write) MSHR misses
system.cpu.dcache.demand_mshr_misses::total        31382                       # number of demand (read+write) MSHR misses
system.cpu.dcache.overall_mshr_misses::.cpu.data        31382                       # number of overall MSHR misses
system.cpu.dcache.overall_mshr_misses::total        31382                       # number of overall MSHR misses
system.cpu.dcache.demand_mshr_miss_latency::.cpu.data   1068410999                       # number of demand (read+write) MSHR miss cycles
system.cpu.dcache.demand_mshr_miss_latency::total   1068410999                       # number of demand (read+write) MSHR miss cycles
system.cpu.dcache.overall_mshr_miss_latency::.cpu.data   1068410999                       # number of overall MSHR miss cycles
system.cpu.dcache.overall_mshr_miss_latency::total   1068410999                       # number of overall MSHR miss cycles
system.cpu.dcache.demand_mshr_miss_rate::.cpu.data     0.004558                       # mshr miss rate for demand accesses
system.cpu.dcache.demand_mshr_miss_rate::total     0.004558                       # mshr miss rate for demand accesses
system.cpu.dcache.overall_mshr_miss_rate::.cpu.data     0.004558                       # mshr miss rate for overall accesses
system.cpu.dcache.overall_mshr_miss_rate::total     0.004558                       # mshr miss rate for overall accesses
system.cpu.dcache.demand_avg_mshr_miss_latency::.cpu.data 34045.344433                       # average overall mshr miss latency
system.cpu.dcache.demand_avg_mshr_miss_latency::total 34045.344433                       # average overall mshr miss latency
system.cpu.dcache.overall_avg_mshr_miss_latency::.cpu.data 34045.344433                       # average overall mshr miss latency
system.cpu.dcache.overall_avg_mshr_miss_latency::total 34045.344433                       # average overall mshr miss latency
system.cpu.dcache.replacements                  30358                       # number of replacements
system.cpu.dcache.ReadReq_hits::.cpu.data      4729627                       # number of ReadReq hits
system.cpu.dcache.ReadReq_hits::total         4729627                       # number of ReadReq hits
system.cpu.dcache.ReadReq_misses::.cpu.data        57502                       # number of ReadReq misses
system.cpu.dcache.ReadReq_misses::total         57502                       # number of ReadReq misses
system.cpu.dcache.ReadReq_miss_latency::.cpu.data   1736204000                       # number of ReadReq miss cycles
system.cpu.dcache.ReadReq_miss_latency::total   1736204000                       # number of ReadReq miss cycles
system.cpu.dcache.ReadReq_accesses::.cpu.data      4787129                       # number of ReadReq accesses(hits+misses)
system.cpu.dcache.ReadReq_accesses::total      4787129                       # number of ReadReq accesses(hits+misses)
system.cpu.dcache.ReadReq_miss_rate::.cpu.data     0.012012                       # miss rate for ReadReq accesses
system.cpu.dcache.ReadReq_miss_rate::total     0.012012                       # miss rate for ReadReq accesses
system.cpu.dcache.ReadReq_avg_miss_latency::.cpu.data 30193.801955                       # average ReadReq miss latency
system.cpu.dcache.ReadReq_avg_miss_latency::total 30193.801955                       # average ReadReq miss latency
system.cpu.dcache.ReadReq_mshr_hits::.cpu.data        26221                       # number of ReadReq MSHR hits
system.cpu.dcache.ReadReq_mshr_hits::total        26221                       # number of ReadReq MSHR hits
system.cpu.dcache.ReadReq_mshr_misses::.cpu.data        31281                       # number of ReadReq MSHR misses
system.cpu.dcache.ReadReq_mshr_misses::total        31281                       # number of ReadReq MSHR misses
system.cpu.dcache.ReadReq_mshr_miss_latency::.cpu.data   1056682000                       # number of ReadReq MSHR miss cycles
system.cpu.dcache.ReadReq_mshr_miss_latency::total   1056682000                       # number of ReadReq MSHR miss cycles
system.cpu.dcache.ReadReq_mshr_miss_rate::.cpu.data     0.006534                       # mshr miss rate for ReadReq accesses
system.cpu.dcache.ReadReq_mshr_miss_rate::total     0.006534                       # mshr miss rate for ReadReq accesses
system.cpu.dcache.ReadReq_avg_mshr_miss_latency::.cpu.data 33780.313929                       # average ReadReq mshr miss latency
system.cpu.dcache.ReadReq_avg_mshr_miss_latency::total 33780.313929                       # average ReadReq mshr miss latency
system.cpu.dcache.WriteReq_hits::.cpu.data      2098363                       # number of WriteReq hits
system.cpu.dcache.WriteReq_hits::total        2098363                       # number of WriteReq hits
system.cpu.dcache.WriteReq_misses::.cpu.data          134                       # number of WriteReq misses
system.cpu.dcache.WriteReq_misses::total          134                       # number of WriteReq misses
system.cpu.dcache.WriteReq_miss_latency::.cpu.data     14095999                       # number of WriteReq miss cycles
system.cpu.dcache.WriteReq_miss_latency::total     14095999                       # number of WriteReq miss cycles
system.cpu.dcache.WriteReq_accesses::.cpu.data      2098497                       # number of WriteReq accesses(hits+misses)
system.cpu.dcache.WriteReq_accesses::total      2098497                       # number of WriteReq accesses(hits+misses)
system.cpu.dcache.WriteReq_miss_rate::.cpu.data     0.000064                       # miss rate for WriteReq accesses
system.cpu.dcache.WriteReq_miss_rate::total     0.000064                       # miss rate for WriteReq accesses
system.cpu.dcache.WriteReq_avg_miss_latency::.cpu.data 105194.022388                       # average WriteReq miss latency
system.cpu.dcache.WriteReq_avg_miss_latency::total 105194.022388                       # average WriteReq miss latency
system.cpu.dcache.WriteReq_mshr_hits::.cpu.data           33                       # number of WriteReq MSHR hits
system.cpu.dcache.WriteReq_mshr_hits::total           33                       # number of WriteReq MSHR hits
system.cpu.dcache.WriteReq_mshr_misses::.cpu.data          101                       # number of WriteReq MSHR misses
system.cpu.dcache.WriteReq_mshr_misses::total          101                       # number of WriteReq MSHR misses
system.cpu.dcache.WriteReq_mshr_miss_latency::.cpu.data     11728999                       # number of WriteReq MSHR miss cycles
system.cpu.dcache.WriteReq_mshr_miss_latency::total     11728999                       # number of WriteReq MSHR miss cycles
system.cpu.dcache.WriteReq_mshr_miss_rate::.cpu.data     0.000048                       # mshr miss rate for WriteReq accesses
system.cpu.dcache.WriteReq_mshr_miss_rate::total     0.000048                       # mshr miss rate for WriteReq accesses
system.cpu.dcache.WriteReq_avg_mshr_miss_latency::.cpu.data 116128.702970                       # average WriteReq mshr miss latency
system.cpu.dcache.WriteReq_avg_mshr_miss_latency::total 116128.702970                       # average WriteReq mshr miss latency
system.cpu.dcache.tags.pwrStateResidencyTicks::UNDEFINED   7351689000                       # Cumulative time (in ticks) in various power states
system.cpu.dcache.tags.tagsinuse           993.647001                       # Cycle average of tags in use
system.cpu.dcache.tags.total_refs             6859372                       # Total number of references to valid blocks.
system.cpu.dcache.tags.sampled_refs             31382                       # Sample count of references to valid blocks.
system.cpu.dcache.tags.avg_refs            218.576636                       # Average number of references to valid blocks.
system.cpu.dcache.tags.warmup_cycle            232000                       # Cycle when the warmup percentage was hit.
system.cpu.dcache.tags.occ_blocks::.cpu.data   993.647001                       # Average occupied blocks per requestor
system.cpu.dcache.tags.occ_percent::.cpu.data     0.970358                       # Average percentage of cache occupancy
system.cpu.dcache.tags.occ_percent::total     0.970358                       # Average percentage of cache occupancy
system.cpu.dcache.tags.occ_task_id_blocks::1024         1024                       # Occupied blocks per task id
system.cpu.dcache.tags.age_task_id_blocks_1024::0          107                       # Occupied blocks per task id
system.cpu.dcache.tags.age_task_id_blocks_1024::1          119                       # Occupied blocks per task id
system.cpu.dcache.tags.age_task_id_blocks_1024::2          187                       # Occupied blocks per task id
system.cpu.dcache.tags.age_task_id_blocks_1024::3          611                       # Occupied blocks per task id
system.cpu.dcache.tags.occ_task_id_percent::1024            1                       # Percentage of cache occupancy per task id
system.cpu.dcache.tags.tag_accesses          13802634                       # Number of tag accesses
system.cpu.dcache.tags.data_accesses         13802634                       # Number of data accesses

---------- End Simulation Statistics   ----------
