
---------- Begin Simulation Statistics ----------
final_tick                                  670915750                       # Number of ticks from beginning of simulation (restored from checkpoints and never reset)
host_inst_rate                                 160856                       # Simulator instruction rate (inst/s)
host_mem_usage                                 797916                       # Number of bytes of host memory used
host_op_rate                                   264429                       # Simulator op (including micro ops) rate (op/s)
host_seconds                                    18.02                       # Real time elapsed on the host
host_tick_rate                               37224130                       # Simulator tick rate (ticks/s)
sim_freq                                 1000000000000                       # Frequency of simulated ticks
sim_insts                                     2899194                       # Number of instructions simulated
sim_ops                                       4765983                       # Number of ops (including micro ops) simulated
sim_seconds                                  0.000671                       # Number of seconds simulated
sim_ticks                                   670915750                       # Number of ticks simulated
system.cpu.branchPred.BTBCorrect                    0                       # Number of correct BTB predictions (this stat may not work properly.
system.cpu.branchPred.BTBHitPct              0.000000                       # BTB Hit Percentage
system.cpu.branchPred.BTBHits                       0                       # Number of BTB hits
system.cpu.branchPred.BTBLookups               670099                       # Number of BTB lookups
system.cpu.branchPred.RASInCorrect                  2                       # Number of incorrect RAS predictions.
system.cpu.branchPred.condIncorrect            107051                       # Number of conditional branches incorrect
system.cpu.branchPred.condPredicted           1030132                       # Number of conditional branches predicted
system.cpu.branchPred.indirectHits             372231                       # Number of indirect target hits.
system.cpu.branchPred.indirectLookups          670099                       # Number of indirect predictor lookups.
system.cpu.branchPred.indirectMisses           297868                       # Number of indirect misses.
system.cpu.branchPred.lookups                 1086483                       # Number of BP lookups
system.cpu.branchPred.usedRAS                   21335                       # Number of times the RAS was used to get a target.
system.cpu.branchPredindirectMispredicted        40778                       # Number of mispredicted indirect branches.
system.cpu.cc_regfile_reads                   3218284                       # number of cc regfile reads
system.cpu.cc_regfile_writes                  2768533                       # number of cc regfile writes
system.cpu.commit.amos                              0                       # Number of atomic instructions committed
system.cpu.commit.branchMispredicts            107102                       # The number of times a branch was mispredicted
system.cpu.commit.branches                     570044                       # Number of branches committed
system.cpu.commit.bw_lim_events                236201                       # number cycles where commit BW limit reached
system.cpu.commit.commitNonSpecStalls               8                       # The number of times commit has been forced to stall to communicate backwards
system.cpu.commit.commitSquashedInsts         2649808                       # The number of squashed insts skipped by commit
system.cpu.commit.committedInsts              2899194                       # Number of instructions committed
system.cpu.commit.committedOps                4765983                       # Number of ops (including micro ops) committed
system.cpu.commit.committed_per_cycle::samples      2257024                       # Number of insts commited each cycle
system.cpu.commit.committed_per_cycle::mean     2.111623                       # Number of insts commited each cycle
system.cpu.commit.committed_per_cycle::stdev     2.853099                       # Number of insts commited each cycle
system.cpu.commit.committed_per_cycle::underflows            0      0.00%      0.00% # Number of insts commited each cycle
system.cpu.commit.committed_per_cycle::0      1100933     48.78%     48.78% # Number of insts commited each cycle
system.cpu.commit.committed_per_cycle::1       322133     14.27%     63.05% # Number of insts commited each cycle
system.cpu.commit.committed_per_cycle::2       130126      5.77%     68.82% # Number of insts commited each cycle
system.cpu.commit.committed_per_cycle::3       135203      5.99%     74.81% # Number of insts commited each cycle
system.cpu.commit.committed_per_cycle::4        95450      4.23%     79.04% # Number of insts commited each cycle
system.cpu.commit.committed_per_cycle::5        50257      2.23%     81.26% # Number of insts commited each cycle
system.cpu.commit.committed_per_cycle::6        51751      2.29%     83.55% # Number of insts commited each cycle
system.cpu.commit.committed_per_cycle::7       134970      5.98%     89.53% # Number of insts commited each cycle
system.cpu.commit.committed_per_cycle::8       236201     10.47%    100.00% # Number of insts commited each cycle
system.cpu.commit.committed_per_cycle::overflows            0      0.00%    100.00% # Number of insts commited each cycle
system.cpu.commit.committed_per_cycle::min_value            0                       # Number of insts commited each cycle
system.cpu.commit.committed_per_cycle::max_value            8                       # Number of insts commited each cycle
system.cpu.commit.committed_per_cycle::total      2257024                       # Number of insts commited each cycle
system.cpu.commit.fp_insts                        312                       # Number of committed floating point instructions.
system.cpu.commit.function_calls                 8278                       # Number of function calls committed.
system.cpu.commit.int_insts                   4749452                       # Number of committed integer instructions.
system.cpu.commit.loads                        420352                       # Number of loads committed
system.cpu.commit.membars                           0                       # Number of memory barriers committed
system.cpu.commit.op_class_0::No_OpClass         8234      0.17%      0.17% # Class of committed instruction
system.cpu.commit.op_class_0::IntAlu          4008626     84.11%     84.28% # Class of committed instruction
system.cpu.commit.op_class_0::IntMult               5      0.00%     84.28% # Class of committed instruction
system.cpu.commit.op_class_0::IntDiv               21      0.00%     84.28% # Class of committed instruction
system.cpu.commit.op_class_0::FloatAdd              2      0.00%     84.28% # Class of committed instruction
system.cpu.commit.op_class_0::FloatCmp              0      0.00%     84.28% # Class of committed instruction
system.cpu.commit.op_class_0::FloatCvt              0      0.00%     84.28% # Class of committed instruction
system.cpu.commit.op_class_0::FloatMult             0      0.00%     84.28% # Class of committed instruction
system.cpu.commit.op_class_0::FloatMultAcc            0      0.00%     84.28% # Class of committed instruction
system.cpu.commit.op_class_0::FloatDiv              0      0.00%     84.28% # Class of committed instruction
system.cpu.commit.op_class_0::FloatMisc             0      0.00%     84.28% # Class of committed instruction
system.cpu.commit.op_class_0::FloatSqrt             0      0.00%     84.28% # Class of committed instruction
system.cpu.commit.op_class_0::SimdAdd               0      0.00%     84.28% # Class of committed instruction
system.cpu.commit.op_class_0::SimdAddAcc            0      0.00%     84.28% # Class of committed instruction
system.cpu.commit.op_class_0::SimdAlu              34      0.00%     84.28% # Class of committed instruction
system.cpu.commit.op_class_0::SimdCmp               0      0.00%     84.28% # Class of committed instruction
system.cpu.commit.op_class_0::SimdCvt              36      0.00%     84.28% # Class of committed instruction
system.cpu.commit.op_class_0::SimdMisc             50      0.00%     84.28% # Class of committed instruction
system.cpu.commit.op_class_0::SimdMult              0      0.00%     84.28% # Class of committed instruction
system.cpu.commit.op_class_0::SimdMultAcc            0      0.00%     84.28% # Class of committed instruction
system.cpu.commit.op_class_0::SimdShift             0      0.00%     84.28% # Class of committed instruction
system.cpu.commit.op_class_0::SimdShiftAcc            0      0.00%     84.28% # Class of committed instruction
system.cpu.commit.op_class_0::SimdDiv               0      0.00%     84.28% # Class of committed instruction
system.cpu.commit.op_class_0::SimdSqrt              0      0.00%     84.28% # Class of committed instruction
system.cpu.commit.op_class_0::SimdFloatAdd            0      0.00%     84.28% # Class of committed instruction
system.cpu.commit.op_class_0::SimdFloatAlu            0      0.00%     84.28% # Class of committed instruction
system.cpu.commit.op_class_0::SimdFloatCmp            0      0.00%     84.28% # Class of committed instruction
system.cpu.commit.op_class_0::SimdFloatCvt            0      0.00%     84.28% # Class of committed instruction
system.cpu.commit.op_class_0::SimdFloatDiv            0      0.00%     84.28% # Class of committed instruction
system.cpu.commit.op_class_0::SimdFloatMisc            0      0.00%     84.28% # Class of committed instruction
system.cpu.commit.op_class_0::SimdFloatMult            0      0.00%     84.28% # Class of committed instruction
system.cpu.commit.op_class_0::SimdFloatMultAcc            0      0.00%     84.28% # Class of committed instruction
system.cpu.commit.op_class_0::SimdFloatSqrt            0      0.00%     84.28% # Class of committed instruction
system.cpu.commit.op_class_0::SimdReduceAdd            0      0.00%     84.28% # Class of committed instruction
system.cpu.commit.op_class_0::SimdReduceAlu            0      0.00%     84.28% # Class of committed instruction
system.cpu.commit.op_class_0::SimdReduceCmp            0      0.00%     84.28% # Class of committed instruction
system.cpu.commit.op_class_0::SimdFloatReduceAdd            0      0.00%     84.28% # Class of committed instruction
system.cpu.commit.op_class_0::SimdFloatReduceCmp            0      0.00%     84.28% # Class of committed instruction
system.cpu.commit.op_class_0::SimdAes               0      0.00%     84.28% # Class of committed instruction
system.cpu.commit.op_class_0::SimdAesMix            0      0.00%     84.28% # Class of committed instruction
system.cpu.commit.op_class_0::SimdSha1Hash            0      0.00%     84.28% # Class of committed instruction
system.cpu.commit.op_class_0::SimdSha1Hash2            0      0.00%     84.28% # Class of committed instruction
system.cpu.commit.op_class_0::SimdSha256Hash            0      0.00%     84.28% # Class of committed instruction
system.cpu.commit.op_class_0::SimdSha256Hash2            0      0.00%     84.28% # Class of committed instruction
system.cpu.commit.op_class_0::SimdShaSigma2            0      0.00%     84.28% # Class of committed instruction
system.cpu.commit.op_class_0::SimdShaSigma3            0      0.00%     84.28% # Class of committed instruction
system.cpu.commit.op_class_0::SimdPredAlu            0      0.00%     84.28% # Class of committed instruction
system.cpu.commit.op_class_0::MemRead          420324      8.82%     93.10% # Class of committed instruction
system.cpu.commit.op_class_0::MemWrite         328471      6.89%    100.00% # Class of committed instruction
system.cpu.commit.op_class_0::FloatMemRead           28      0.00%    100.00% # Class of committed instruction
system.cpu.commit.op_class_0::FloatMemWrite          152      0.00%    100.00% # Class of committed instruction
system.cpu.commit.op_class_0::IprAccess             0      0.00%    100.00% # Class of committed instruction
system.cpu.commit.op_class_0::InstPrefetch            0      0.00%    100.00% # Class of committed instruction
system.cpu.commit.op_class_0::total           4765983                       # Class of committed instruction
system.cpu.commit.refs                         748975                       # Number of memory references committed
system.cpu.commit.swp_count                         0                       # Number of s/w prefetches committed
system.cpu.commit.vec_insts                         0                       # Number of committed Vector instructions.
system.cpu.committedInsts                     2899194                       # Number of Instructions Simulated
system.cpu.committedOps                       4765983                       # Number of Ops (including micro ops) Simulated
system.cpu.cpi                               0.925659                       # CPI: Cycles Per Instruction
system.cpu.cpi_total                         0.925659                       # CPI: Total CPI of All Threads
system.cpu.decode.BlockedCycles                611404                       # Number of cycles decode is blocked
system.cpu.decode.DecodedInsts                9016676                       # Number of instructions handled by decode
system.cpu.decode.IdleCycles                   642617                       # Number of cycles decode is idle
system.cpu.decode.RunCycles                   1110062                       # Number of cycles decode is running
system.cpu.decode.SquashCycles                 107223                       # Number of cycles decode is squashing
system.cpu.decode.UnblockCycles                167111                       # Number of cycles decode is unblocking
system.cpu.dtb.rdAccesses                      520024                       # TLB accesses on read requests
system.cpu.dtb.rdMisses                            58                       # TLB misses on read requests
system.cpu.dtb.wrAccesses                      415535                       # TLB accesses on write requests
system.cpu.dtb.wrMisses                            17                       # TLB misses on write requests
system.cpu.fetch.Branches                     1086483                       # Number of branches that fetch encountered
system.cpu.fetch.CacheLines                    613550                       # Number of cache lines fetched
system.cpu.fetch.Cycles                       1850136                       # Number of cycles fetch has run and was not squashing or blocked
system.cpu.fetch.IcacheSquashes                 31276                       # Number of outstanding Icache misses that were squashed
system.cpu.fetch.Insts                        5913012                       # Number of instructions fetch has processed
system.cpu.fetch.MiscStallCycles                   54                       # Number of cycles fetch has spent waiting on interrupts, or bad addresses, or out of MSHRs
system.cpu.fetch.PendingQuiesceStallCycles            7                       # Number of stall cycles due to pending quiesce instructions
system.cpu.fetch.PendingTrapStallCycles           331                       # Number of stall cycles due to pending traps
system.cpu.fetch.SquashCycles                  214446                       # Number of cycles fetch has spent squashing
system.cpu.fetch.branchRate                  0.404851                       # Number of branch fetches per cycle
system.cpu.fetch.icacheStallCycles             680666                       # Number of cycles fetch is stalled on an Icache miss
system.cpu.fetch.predictedBranches             393566                       # Number of branches that fetch has predicted taken
system.cpu.fetch.rate                        2.203335                       # Number of inst fetches per cycle
system.cpu.fetch.rateDist::samples            2638417                       # Number of instructions fetched each cycle (Total)
system.cpu.fetch.rateDist::mean              3.644807                       # Number of instructions fetched each cycle (Total)
system.cpu.fetch.rateDist::stdev             3.697850                       # Number of instructions fetched each cycle (Total)
system.cpu.fetch.rateDist::underflows               0      0.00%      0.00% # Number of instructions fetched each cycle (Total)
system.cpu.fetch.rateDist::0                  1234183     46.78%     46.78% # Number of instructions fetched each cycle (Total)
system.cpu.fetch.rateDist::1                    13553      0.51%     47.29% # Number of instructions fetched each cycle (Total)
system.cpu.fetch.rateDist::2                     7294      0.28%     47.57% # Number of instructions fetched each cycle (Total)
system.cpu.fetch.rateDist::3                   184497      6.99%     54.56% # Number of instructions fetched each cycle (Total)
system.cpu.fetch.rateDist::4                    29697      1.13%     55.69% # Number of instructions fetched each cycle (Total)
system.cpu.fetch.rateDist::5                   100131      3.80%     59.48% # Number of instructions fetched each cycle (Total)
system.cpu.fetch.rateDist::6                    41230      1.56%     61.04% # Number of instructions fetched each cycle (Total)
system.cpu.fetch.rateDist::7                    54589      2.07%     63.11% # Number of instructions fetched each cycle (Total)
system.cpu.fetch.rateDist::8                   973243     36.89%    100.00% # Number of instructions fetched each cycle (Total)
system.cpu.fetch.rateDist::overflows                0      0.00%    100.00% # Number of instructions fetched each cycle (Total)
system.cpu.fetch.rateDist::min_value                0                       # Number of instructions fetched each cycle (Total)
system.cpu.fetch.rateDist::max_value                8                       # Number of instructions fetched each cycle (Total)
system.cpu.fetch.rateDist::total              2638417                       # Number of instructions fetched each cycle (Total)
system.cpu.fp_regfile_reads                       515                       # number of floating regfile reads
system.cpu.fp_regfile_writes                      172                       # number of floating regfile writes
system.cpu.idleCycles                           45247                       # Total number of cycles that the CPU has spent unscheduled due to idling
system.cpu.iew.branchMispredicts               118357                       # Number of branch mispredicts detected at execute
system.cpu.iew.exec_branches                   723777                       # Number of branches executed
system.cpu.iew.exec_nop                             0                       # number of nop insts executed
system.cpu.iew.exec_rate                     2.400048                       # Inst execution rate
system.cpu.iew.exec_refs                       935302                       # number of memory reference insts executed
system.cpu.iew.exec_stores                     415534                       # Number of stores executed
system.cpu.iew.exec_swp                             0                       # number of swp insts executed
system.cpu.iew.iewBlockCycles                  293254                       # Number of cycles IEW is blocking
system.cpu.iew.iewDispLoadInsts                619411                       # Number of dispatched load instructions
system.cpu.iew.iewDispNonSpecInsts                 33                       # Number of dispatched non-speculative instructions
system.cpu.iew.iewDispSquashedInsts             16469                       # Number of squashed instructions skipped by dispatch
system.cpu.iew.iewDispStoreInsts               536515                       # Number of dispatched store instructions
system.cpu.iew.iewDispatchedInsts             7415787                       # Number of instructions dispatched to IQ
system.cpu.iew.iewExecLoadInsts                519768                       # Number of load instructions executed
system.cpu.iew.iewExecSquashedInsts            274705                       # Number of squashed instructions skipped in execute
system.cpu.iew.iewExecutedInsts               6440923                       # Number of executed instructions
system.cpu.iew.iewIQFullEvents                    184                       # Number of times the IQ has become full, causing a stall
system.cpu.iew.iewIdleCycles                        0                       # Number of cycles IEW is idle
system.cpu.iew.iewLSQFullEvents                  2432                       # Number of times the LSQ has become full, causing a stall
system.cpu.iew.iewSquashCycles                 107223                       # Number of cycles IEW is squashing
system.cpu.iew.iewUnblockCycles                  2643                       # Number of cycles IEW is unblocking
system.cpu.iew.lsq.thread0.blockedLoads             0                       # Number of blocked loads due to partial load-store forwarding
system.cpu.iew.lsq.thread0.cacheBlocked             8                       # Number of times an access to memory failed due to the cache being blocked
system.cpu.iew.lsq.thread0.forwLoads            26821                       # Number of loads that had data forwarded from stores
system.cpu.iew.lsq.thread0.ignoredResponses           60                       # Number of memory responses ignored because the instruction is squashed
system.cpu.iew.lsq.thread0.invAddrLoads             0                       # Number of loads ignored due to an invalid address
system.cpu.iew.lsq.thread0.invAddrSwpfs             0                       # Number of software prefetches ignored due to an invalid address
system.cpu.iew.lsq.thread0.memOrderViolation          152                       # Number of memory ordering violations
system.cpu.iew.lsq.thread0.rescheduledLoads            1                       # Number of loads that were rescheduled
system.cpu.iew.lsq.thread0.squashedLoads       199059                       # Number of loads squashed
system.cpu.iew.lsq.thread0.squashedStores       207892                       # Number of stores squashed
system.cpu.iew.memOrderViolationEvents            152                       # Number of memory order violations
system.cpu.iew.predictedNotTakenIncorrect        79101                       # Number of branches that were predicted not taken incorrectly
system.cpu.iew.predictedTakenIncorrect          39256                       # Number of branches that were predicted taken incorrectly
system.cpu.iew.wb_consumers                   6232028                       # num instructions consuming a value
system.cpu.iew.wb_count                       6371510                       # cumulative count of insts written-back
system.cpu.iew.wb_fanout                     0.721007                       # average fanout of values written-back
system.cpu.iew.wb_producers                   4493335                       # num instructions producing a value
system.cpu.iew.wb_rate                       2.374183                       # insts written-back per cycle
system.cpu.iew.wb_sent                        6395169                       # cumulative count of insts sent to commit
system.cpu.int_regfile_reads                  8678760                       # number of integer regfile reads
system.cpu.int_regfile_writes                 5215973                       # number of integer regfile writes
system.cpu.ipc                               1.080312                       # IPC: Instructions Per Cycle
system.cpu.ipc_total                         1.080312                       # IPC: Total IPC of All Threads
system.cpu.iq.FU_type_0::No_OpClass             18311      0.27%      0.27% # Type of FU issued
system.cpu.iq.FU_type_0::IntAlu               5693801     84.78%     85.06% # Type of FU issued
system.cpu.iq.FU_type_0::IntMult                    5      0.00%     85.06% # Type of FU issued
system.cpu.iq.FU_type_0::IntDiv                    22      0.00%     85.06% # Type of FU issued
system.cpu.iq.FU_type_0::FloatAdd                   2      0.00%     85.06% # Type of FU issued
system.cpu.iq.FU_type_0::FloatCmp                   0      0.00%     85.06% # Type of FU issued
system.cpu.iq.FU_type_0::FloatCvt                   0      0.00%     85.06% # Type of FU issued
system.cpu.iq.FU_type_0::FloatMult                  0      0.00%     85.06% # Type of FU issued
system.cpu.iq.FU_type_0::FloatMultAcc               0      0.00%     85.06% # Type of FU issued
system.cpu.iq.FU_type_0::FloatDiv                   0      0.00%     85.06% # Type of FU issued
system.cpu.iq.FU_type_0::FloatMisc                  0      0.00%     85.06% # Type of FU issued
system.cpu.iq.FU_type_0::FloatSqrt                  0      0.00%     85.06% # Type of FU issued
system.cpu.iq.FU_type_0::SimdAdd                    0      0.00%     85.06% # Type of FU issued
system.cpu.iq.FU_type_0::SimdAddAcc                 0      0.00%     85.06% # Type of FU issued
system.cpu.iq.FU_type_0::SimdAlu                   50      0.00%     85.06% # Type of FU issued
system.cpu.iq.FU_type_0::SimdCmp                    0      0.00%     85.06% # Type of FU issued
system.cpu.iq.FU_type_0::SimdCvt                   54      0.00%     85.06% # Type of FU issued
system.cpu.iq.FU_type_0::SimdMisc                  64      0.00%     85.06% # Type of FU issued
system.cpu.iq.FU_type_0::SimdMult                   0      0.00%     85.06% # Type of FU issued
system.cpu.iq.FU_type_0::SimdMultAcc                0      0.00%     85.06% # Type of FU issued
system.cpu.iq.FU_type_0::SimdShift                  0      0.00%     85.06% # Type of FU issued
system.cpu.iq.FU_type_0::SimdShiftAcc               0      0.00%     85.06% # Type of FU issued
system.cpu.iq.FU_type_0::SimdDiv                    0      0.00%     85.06% # Type of FU issued
system.cpu.iq.FU_type_0::SimdSqrt                   0      0.00%     85.06% # Type of FU issued
system.cpu.iq.FU_type_0::SimdFloatAdd               0      0.00%     85.06% # Type of FU issued
system.cpu.iq.FU_type_0::SimdFloatAlu               0      0.00%     85.06% # Type of FU issued
system.cpu.iq.FU_type_0::SimdFloatCmp               0      0.00%     85.06% # Type of FU issued
system.cpu.iq.FU_type_0::SimdFloatCvt               0      0.00%     85.06% # Type of FU issued
system.cpu.iq.FU_type_0::SimdFloatDiv               0      0.00%     85.06% # Type of FU issued
system.cpu.iq.FU_type_0::SimdFloatMisc              0      0.00%     85.06% # Type of FU issued
system.cpu.iq.FU_type_0::SimdFloatMult              0      0.00%     85.06% # Type of FU issued
system.cpu.iq.FU_type_0::SimdFloatMultAcc            0      0.00%     85.06% # Type of FU issued
system.cpu.iq.FU_type_0::SimdFloatSqrt              0      0.00%     85.06% # Type of FU issued
system.cpu.iq.FU_type_0::SimdReduceAdd              0      0.00%     85.06% # Type of FU issued
system.cpu.iq.FU_type_0::SimdReduceAlu              0      0.00%     85.06% # Type of FU issued
system.cpu.iq.FU_type_0::SimdReduceCmp              0      0.00%     85.06% # Type of FU issued
system.cpu.iq.FU_type_0::SimdFloatReduceAdd            0      0.00%     85.06% # Type of FU issued
system.cpu.iq.FU_type_0::SimdFloatReduceCmp            0      0.00%     85.06% # Type of FU issued
system.cpu.iq.FU_type_0::SimdAes                    0      0.00%     85.06% # Type of FU issued
system.cpu.iq.FU_type_0::SimdAesMix                 0      0.00%     85.06% # Type of FU issued
system.cpu.iq.FU_type_0::SimdSha1Hash               0      0.00%     85.06% # Type of FU issued
system.cpu.iq.FU_type_0::SimdSha1Hash2              0      0.00%     85.06% # Type of FU issued
system.cpu.iq.FU_type_0::SimdSha256Hash             0      0.00%     85.06% # Type of FU issued
system.cpu.iq.FU_type_0::SimdSha256Hash2            0      0.00%     85.06% # Type of FU issued
system.cpu.iq.FU_type_0::SimdShaSigma2              0      0.00%     85.06% # Type of FU issued
system.cpu.iq.FU_type_0::SimdShaSigma3              0      0.00%     85.06% # Type of FU issued
system.cpu.iq.FU_type_0::SimdPredAlu                0      0.00%     85.06% # Type of FU issued
system.cpu.iq.FU_type_0::MemRead               556388      8.28%     93.34% # Type of FU issued
system.cpu.iq.FU_type_0::MemWrite              444040      6.61%     99.96% # Type of FU issued
system.cpu.iq.FU_type_0::FloatMemRead            2738      0.04%    100.00% # Type of FU issued
system.cpu.iq.FU_type_0::FloatMemWrite            153      0.00%    100.00% # Type of FU issued
system.cpu.iq.FU_type_0::IprAccess                  0      0.00%    100.00% # Type of FU issued
system.cpu.iq.FU_type_0::InstPrefetch               0      0.00%    100.00% # Type of FU issued
system.cpu.iq.FU_type_0::total                6715628                       # Type of FU issued
system.cpu.iq.fp_alu_accesses                    3090                       # Number of floating point alu accesses
system.cpu.iq.fp_inst_queue_reads                6167                       # Number of floating instruction queue reads
system.cpu.iq.fp_inst_queue_wakeup_accesses          375                       # Number of floating instruction queue wakeup accesses
system.cpu.iq.fp_inst_queue_writes              24566                       # Number of floating instruction queue writes
system.cpu.iq.fu_busy_cnt                      210083                       # FU busy when requested
system.cpu.iq.fu_busy_rate                   0.031283                       # FU busy rate (busy events/executed inst)
system.cpu.iq.fu_full::No_OpClass                   0      0.00%      0.00% # attempts to use FU when none available
system.cpu.iq.fu_full::IntAlu                  209930     99.93%     99.93% # attempts to use FU when none available
system.cpu.iq.fu_full::IntMult                      0      0.00%     99.93% # attempts to use FU when none available
system.cpu.iq.fu_full::IntDiv                       0      0.00%     99.93% # attempts to use FU when none available
system.cpu.iq.fu_full::FloatAdd                     0      0.00%     99.93% # attempts to use FU when none available
system.cpu.iq.fu_full::FloatCmp                     0      0.00%     99.93% # attempts to use FU when none available
system.cpu.iq.fu_full::FloatCvt                     0      0.00%     99.93% # attempts to use FU when none available
system.cpu.iq.fu_full::FloatMult                    0      0.00%     99.93% # attempts to use FU when none available
system.cpu.iq.fu_full::FloatMultAcc                 0      0.00%     99.93% # attempts to use FU when none available
system.cpu.iq.fu_full::FloatDiv                     0      0.00%     99.93% # attempts to use FU when none available
system.cpu.iq.fu_full::FloatMisc                    0      0.00%     99.93% # attempts to use FU when none available
system.cpu.iq.fu_full::FloatSqrt                    0      0.00%     99.93% # attempts to use FU when none available
system.cpu.iq.fu_full::SimdAdd                      0      0.00%     99.93% # attempts to use FU when none available
system.cpu.iq.fu_full::SimdAddAcc                   0      0.00%     99.93% # attempts to use FU when none available
system.cpu.iq.fu_full::SimdAlu                      2      0.00%     99.93% # attempts to use FU when none available
system.cpu.iq.fu_full::SimdCmp                      0      0.00%     99.93% # attempts to use FU when none available
system.cpu.iq.fu_full::SimdCvt                      2      0.00%     99.93% # attempts to use FU when none available
system.cpu.iq.fu_full::SimdMisc                     0      0.00%     99.93% # attempts to use FU when none available
system.cpu.iq.fu_full::SimdMult                     0      0.00%     99.93% # attempts to use FU when none available
system.cpu.iq.fu_full::SimdMultAcc                  0      0.00%     99.93% # attempts to use FU when none available
system.cpu.iq.fu_full::SimdShift                    0      0.00%     99.93% # attempts to use FU when none available
system.cpu.iq.fu_full::SimdShiftAcc                 0      0.00%     99.93% # attempts to use FU when none available
system.cpu.iq.fu_full::SimdDiv                      0      0.00%     99.93% # attempts to use FU when none available
system.cpu.iq.fu_full::SimdSqrt                     0      0.00%     99.93% # attempts to use FU when none available
system.cpu.iq.fu_full::SimdFloatAdd                 0      0.00%     99.93% # attempts to use FU when none available
system.cpu.iq.fu_full::SimdFloatAlu                 0      0.00%     99.93% # attempts to use FU when none available
system.cpu.iq.fu_full::SimdFloatCmp                 0      0.00%     99.93% # attempts to use FU when none available
system.cpu.iq.fu_full::SimdFloatCvt                 0      0.00%     99.93% # attempts to use FU when none available
system.cpu.iq.fu_full::SimdFloatDiv                 0      0.00%     99.93% # attempts to use FU when none available
system.cpu.iq.fu_full::SimdFloatMisc                0      0.00%     99.93% # attempts to use FU when none available
system.cpu.iq.fu_full::SimdFloatMult                0      0.00%     99.93% # attempts to use FU when none available
system.cpu.iq.fu_full::SimdFloatMultAcc             0      0.00%     99.93% # attempts to use FU when none available
system.cpu.iq.fu_full::SimdFloatSqrt                0      0.00%     99.93% # attempts to use FU when none available
system.cpu.iq.fu_full::SimdReduceAdd                0      0.00%     99.93% # attempts to use FU when none available
system.cpu.iq.fu_full::SimdReduceAlu                0      0.00%     99.93% # attempts to use FU when none available
system.cpu.iq.fu_full::SimdReduceCmp                0      0.00%     99.93% # attempts to use FU when none available
system.cpu.iq.fu_full::SimdFloatReduceAdd            0      0.00%     99.93% # attempts to use FU when none available
system.cpu.iq.fu_full::SimdFloatReduceCmp            0      0.00%     99.93% # attempts to use FU when none available
system.cpu.iq.fu_full::SimdAes                      0      0.00%     99.93% # attempts to use FU when none available
system.cpu.iq.fu_full::SimdAesMix                   0      0.00%     99.93% # attempts to use FU when none available
system.cpu.iq.fu_full::SimdSha1Hash                 0      0.00%     99.93% # attempts to use FU when none available
system.cpu.iq.fu_full::SimdSha1Hash2                0      0.00%     99.93% # attempts to use FU when none available
system.cpu.iq.fu_full::SimdSha256Hash               0      0.00%     99.93% # attempts to use FU when none available
system.cpu.iq.fu_full::SimdSha256Hash2              0      0.00%     99.93% # attempts to use FU when none available
system.cpu.iq.fu_full::SimdShaSigma2                0      0.00%     99.93% # attempts to use FU when none available
system.cpu.iq.fu_full::SimdShaSigma3                0      0.00%     99.93% # attempts to use FU when none available
system.cpu.iq.fu_full::SimdPredAlu                  0      0.00%     99.93% # attempts to use FU when none available
system.cpu.iq.fu_full::MemRead                    108      0.05%     99.98% # attempts to use FU when none available
system.cpu.iq.fu_full::MemWrite                    32      0.02%    100.00% # attempts to use FU when none available
system.cpu.iq.fu_full::FloatMemRead                 1      0.00%    100.00% # attempts to use FU when none available
system.cpu.iq.fu_full::FloatMemWrite                8      0.00%    100.00% # attempts to use FU when none available
system.cpu.iq.fu_full::IprAccess                    0      0.00%    100.00% # attempts to use FU when none available
system.cpu.iq.fu_full::InstPrefetch                 0      0.00%    100.00% # attempts to use FU when none available
system.cpu.iq.int_alu_accesses                6904310                       # Number of integer alu accesses
system.cpu.iq.int_inst_queue_reads           16292850                       # Number of integer instruction queue reads
system.cpu.iq.int_inst_queue_wakeup_accesses      6371135                       # Number of integer instruction queue wakeup accesses
system.cpu.iq.int_inst_queue_writes          10041159                       # Number of integer instruction queue writes
system.cpu.iq.iqInstsAdded                    7415717                       # Number of instructions added to the IQ (excludes non-spec)
system.cpu.iq.iqInstsIssued                   6715628                       # Number of instructions issued
system.cpu.iq.iqNonSpecInstsAdded                  70                       # Number of non-speculative instructions added to the IQ
system.cpu.iq.iqSquashedInstsExamined         2649803                       # Number of squashed instructions iterated over during squash; mainly for profiling
system.cpu.iq.iqSquashedInstsIssued             19261                       # Number of squashed instructions issued
system.cpu.iq.iqSquashedNonSpecRemoved             62                       # Number of squashed non-spec instructions that were removed
system.cpu.iq.iqSquashedOperandsExamined      2884895                       # Number of squashed operands that are examined and possibly removed from graph
system.cpu.iq.issued_per_cycle::samples       2638417                       # Number of insts issued each cycle
system.cpu.iq.issued_per_cycle::mean         2.545325                       # Number of insts issued each cycle
system.cpu.iq.issued_per_cycle::stdev        2.489463                       # Number of insts issued each cycle
system.cpu.iq.issued_per_cycle::underflows            0      0.00%      0.00% # Number of insts issued each cycle
system.cpu.iq.issued_per_cycle::0              993946     37.67%     37.67% # Number of insts issued each cycle
system.cpu.iq.issued_per_cycle::1              181679      6.89%     44.56% # Number of insts issued each cycle
system.cpu.iq.issued_per_cycle::2              240537      9.12%     53.67% # Number of insts issued each cycle
system.cpu.iq.issued_per_cycle::3              242802      9.20%     62.88% # Number of insts issued each cycle
system.cpu.iq.issued_per_cycle::4              254322      9.64%     72.52% # Number of insts issued each cycle
system.cpu.iq.issued_per_cycle::5              231190      8.76%     81.28% # Number of insts issued each cycle
system.cpu.iq.issued_per_cycle::6              329561     12.49%     93.77% # Number of insts issued each cycle
system.cpu.iq.issued_per_cycle::7              141175      5.35%     99.12% # Number of insts issued each cycle
system.cpu.iq.issued_per_cycle::8               23205      0.88%    100.00% # Number of insts issued each cycle
system.cpu.iq.issued_per_cycle::overflows            0      0.00%    100.00% # Number of insts issued each cycle
system.cpu.iq.issued_per_cycle::min_value            0                       # Number of insts issued each cycle
system.cpu.iq.issued_per_cycle::max_value            8                       # Number of insts issued each cycle
system.cpu.iq.issued_per_cycle::total         2638417                       # Number of insts issued each cycle
system.cpu.iq.rate                           2.502410                       # Inst issue rate
system.cpu.iq.vec_alu_accesses                      0                       # Number of vector alu accesses
system.cpu.iq.vec_inst_queue_reads                  0                       # Number of vector instruction queue reads
system.cpu.iq.vec_inst_queue_wakeup_accesses            0                       # Number of vector instruction queue wakeup accesses
system.cpu.iq.vec_inst_queue_writes                 0                       # Number of vector instruction queue writes
system.cpu.itb.rdAccesses                           0                       # TLB accesses on read requests
system.cpu.itb.rdMisses                             0                       # TLB misses on read requests
system.cpu.itb.wrAccesses                      613604                       # TLB accesses on write requests
system.cpu.itb.wrMisses                            85                       # TLB misses on write requests
system.cpu.memDep0.conflictingLoads            161794                       # Number of conflicting loads.
system.cpu.memDep0.conflictingStores           151371                       # Number of conflicting stores.
system.cpu.memDep0.insertedLoads               619411                       # Number of loads inserted to the mem dependence unit.
system.cpu.memDep0.insertedStores              536515                       # Number of stores inserted to the mem dependence unit.
system.cpu.misc_regfile_reads                 2443945                       # number of misc regfile reads
system.cpu.misc_regfile_writes                      1                       # number of misc regfile writes
system.cpu.numCycles                          2683664                       # number of cpu cycles simulated
system.cpu.numWorkItemsCompleted                    0                       # number of work items this cpu completed
system.cpu.numWorkItemsStarted                      0                       # number of work items this cpu started
system.cpu.rename.BlockCycles                  510883                       # Number of cycles rename is blocking
system.cpu.rename.CommittedMaps               5919236                       # Number of HB maps that are committed
system.cpu.rename.IQFullEvents                   5222                       # Number of times rename has blocked due to IQ full
system.cpu.rename.IdleCycles                   723407                       # Number of cycles rename is idle
system.cpu.rename.ROBFullEvents                 56221                       # Number of times rename has blocked due to ROB full
system.cpu.rename.RenameLookups              20086606                       # Number of register rename lookups that rename has made
system.cpu.rename.RenamedInsts                8498548                       # Number of instructions processed by rename
system.cpu.rename.RenamedOperands            10528740                       # Number of destination operands rename has renamed
system.cpu.rename.RunCycles                   1128832                       # Number of cycles rename is running
system.cpu.rename.SQFullEvents                  31659                       # Number of times rename has blocked due to SQ full
system.cpu.rename.SquashCycles                 107223                       # Number of cycles rename is squashing
system.cpu.rename.UnblockCycles                165199                       # Number of cycles rename is unblocking
system.cpu.rename.UndoneMaps                  4609504                       # Number of HB maps that are undone due to squashing
system.cpu.rename.fp_rename_lookups              7096                       # Number of floating rename lookups
system.cpu.rename.int_rename_lookups         12185313                       # Number of integer rename lookups
system.cpu.rename.serializeStallCycles           2873                       # count of cycles rename stalled for serializing inst
system.cpu.rename.serializingInsts                 23                       # count of serializing insts renamed
system.cpu.rename.skidInsts                    688664                       # count of insts added to the skid buffer
system.cpu.rename.tempSerializingInsts             17                       # count of temporary serializing insts renamed
system.cpu.rob.rob_reads                      9436614                       # The number of ROB reads
system.cpu.rob.rob_writes                    15215434                       # The number of ROB writes
system.cpu.timesIdled                             224                       # Number of times that the entire CPU went into an idle state and unscheduled itself
system.cpu.workload.numSyscalls                     7                       # Number of system calls
system.membus.snoop_filter.hit_multi_requests            0                       # Number of requests hitting in the snoop filter with multiple (>1) holders of the requested data.
system.membus.snoop_filter.hit_multi_snoops            0                       # Number of snoops hitting in the snoop filter with multiple (>1) holders of the requested data.
system.membus.snoop_filter.hit_single_requests            0                       # Number of requests hitting in the snoop filter with a single holder of the requested data.
system.membus.snoop_filter.hit_single_snoops            0                       # Number of snoops hitting in the snoop filter with a single holder of the requested data.
system.membus.snoop_filter.tot_requests          1528                       # Total number of requests made to the snoop filter.
system.membus.snoop_filter.tot_snoops               0                       # Total number of snoops made to the snoop filter.
system.tol2bus.snoop_filter.hit_multi_requests            1                       # Number of requests hitting in the snoop filter with multiple (>1) holders of the requested data.
system.tol2bus.snoop_filter.hit_multi_snoops            0                       # Number of snoops hitting in the snoop filter with multiple (>1) holders of the requested data.
system.tol2bus.snoop_filter.hit_single_requests          343                       # Number of requests hitting in the snoop filter with a single holder of the requested data.
system.tol2bus.snoop_filter.hit_single_snoops            0                       # Number of snoops hitting in the snoop filter with a single holder of the requested data.
system.tol2bus.snoop_filter.tot_requests         1931                       # Total number of requests made to the snoop filter.
system.tol2bus.snoop_filter.tot_snoops              0                       # Total number of snoops made to the snoop filter.
system.membus.pwrStateResidencyTicks::UNDEFINED    670915750                       # Cumulative time (in ticks) in various power states
system.membus.trans_dist::ReadResp               1008                       # Transaction distribution
system.membus.trans_dist::ReadExReq               520                       # Transaction distribution
system.membus.trans_dist::ReadExResp              520                       # Transaction distribution
system.membus.trans_dist::ReadSharedReq          1008                       # Transaction distribution
system.membus.pkt_count_system.l2.mem_side::system.mem_ctrls.port         3056                       # Packet count per connected master and slave (bytes)
system.membus.pkt_count_system.l2.mem_side::total         3056                       # Packet count per connected master and slave (bytes)
system.membus.pkt_count::total                   3056                       # Packet count per connected master and slave (bytes)
system.membus.pkt_size_system.l2.mem_side::system.mem_ctrls.port        97792                       # Cumulative packet size per connected master and slave (bytes)
system.membus.pkt_size_system.l2.mem_side::total        97792                       # Cumulative packet size per connected master and slave (bytes)
system.membus.pkt_size::total                   97792                       # Cumulative packet size per connected master and slave (bytes)
system.membus.snoops                                0                       # Total snoops (count)
system.membus.snoopTraffic                          0                       # Total snoop traffic (bytes)
system.membus.snoop_fanout::samples              1528                       # Request fanout histogram
system.membus.snoop_fanout::mean                    0                       # Request fanout histogram
system.membus.snoop_fanout::stdev                   0                       # Request fanout histogram
system.membus.snoop_fanout::underflows              0      0.00%      0.00% # Request fanout histogram
system.membus.snoop_fanout::0                    1528    100.00%    100.00% # Request fanout histogram
system.membus.snoop_fanout::1                       0      0.00%    100.00% # Request fanout histogram
system.membus.snoop_fanout::overflows               0      0.00%    100.00% # Request fanout histogram
system.membus.snoop_fanout::min_value               0                       # Request fanout histogram
system.membus.snoop_fanout::max_value               0                       # Request fanout histogram
system.membus.snoop_fanout::total                1528                       # Request fanout histogram
system.membus.reqLayer2.occupancy             2086000                       # Layer occupancy (ticks)
system.membus.reqLayer2.utilization               0.3                       # Layer utilization (%)
system.membus.respLayer1.occupancy            8081750                       # Layer occupancy (ticks)
system.membus.respLayer1.utilization              1.2                       # Layer utilization (%)
system.tol2bus.pwrStateResidencyTicks::UNDEFINED    670915750                       # Cumulative time (in ticks) in various power states
system.tol2bus.trans_dist::ReadResp              1052                       # Transaction distribution
system.tol2bus.trans_dist::WritebackDirty          171                       # Transaction distribution
system.tol2bus.trans_dist::WritebackClean          135                       # Transaction distribution
system.tol2bus.trans_dist::CleanEvict              37                       # Transaction distribution
system.tol2bus.trans_dist::ReadExReq              535                       # Transaction distribution
system.tol2bus.trans_dist::ReadExResp             535                       # Transaction distribution
system.tol2bus.trans_dist::ReadCleanReq           356                       # Transaction distribution
system.tol2bus.trans_dist::ReadSharedReq          697                       # Transaction distribution
system.tol2bus.pkt_count_system.cpu.icache.mem_side::system.l2.cpu_side          846                       # Packet count per connected master and slave (bytes)
system.tol2bus.pkt_count_system.cpu.dcache.mem_side::system.l2.cpu_side         2672                       # Packet count per connected master and slave (bytes)
system.tol2bus.pkt_count::total                  3518                       # Packet count per connected master and slave (bytes)
system.tol2bus.pkt_size_system.cpu.icache.mem_side::system.l2.cpu_side        31360                       # Cumulative packet size per connected master and slave (bytes)
system.tol2bus.pkt_size_system.cpu.dcache.mem_side::system.l2.cpu_side        89792                       # Cumulative packet size per connected master and slave (bytes)
system.tol2bus.pkt_size::total                 121152                       # Cumulative packet size per connected master and slave (bytes)
system.tol2bus.snoops                               0                       # Total snoops (count)
system.tol2bus.snoopTraffic                         0                       # Total snoop traffic (bytes)
system.tol2bus.snoop_fanout::samples             1588                       # Request fanout histogram
system.tol2bus.snoop_fanout::mean            0.000630                       # Request fanout histogram
system.tol2bus.snoop_fanout::stdev           0.025094                       # Request fanout histogram
system.tol2bus.snoop_fanout::underflows             0      0.00%      0.00% # Request fanout histogram
system.tol2bus.snoop_fanout::0                   1587     99.94%     99.94% # Request fanout histogram
system.tol2bus.snoop_fanout::1                      1      0.06%    100.00% # Request fanout histogram
system.tol2bus.snoop_fanout::2                      0      0.00%    100.00% # Request fanout histogram
system.tol2bus.snoop_fanout::3                      0      0.00%    100.00% # Request fanout histogram
system.tol2bus.snoop_fanout::4                      0      0.00%    100.00% # Request fanout histogram
system.tol2bus.snoop_fanout::overflows              0      0.00%    100.00% # Request fanout histogram
system.tol2bus.snoop_fanout::min_value              0                       # Request fanout histogram
system.tol2bus.snoop_fanout::max_value              1                       # Request fanout histogram
system.tol2bus.snoop_fanout::total               1588                       # Request fanout histogram
system.tol2bus.reqLayer0.occupancy             635750                       # Layer occupancy (ticks)
system.tol2bus.reqLayer0.utilization              0.1                       # Layer utilization (%)
system.tol2bus.respLayer1.occupancy            924000                       # Layer occupancy (ticks)
system.tol2bus.respLayer1.utilization             0.1                       # Layer utilization (%)
system.tol2bus.respLayer0.occupancy            266250                       # Layer occupancy (ticks)
system.tol2bus.respLayer0.utilization             0.0                       # Layer utilization (%)
system.voltage_domain.voltage                       1                       # Voltage in Volts
system.clk_domain.clock                          1000                       # Clock period in ticks
system.l2.pwrStateResidencyTicks::UNDEFINED    670915750                       # Cumulative time (in ticks) in various power states
system.l2.demand_hits::.cpu.inst                   23                       # number of demand (read+write) hits
system.l2.demand_hits::.cpu.data                   36                       # number of demand (read+write) hits
system.l2.demand_hits::total                       59                       # number of demand (read+write) hits
system.l2.overall_hits::.cpu.inst                  23                       # number of overall hits
system.l2.overall_hits::.cpu.data                  36                       # number of overall hits
system.l2.overall_hits::total                      59                       # number of overall hits
system.l2.demand_misses::.cpu.inst                333                       # number of demand (read+write) misses
system.l2.demand_misses::.cpu.data               1196                       # number of demand (read+write) misses
system.l2.demand_misses::total                   1529                       # number of demand (read+write) misses
system.l2.overall_misses::.cpu.inst               333                       # number of overall misses
system.l2.overall_misses::.cpu.data              1196                       # number of overall misses
system.l2.overall_misses::total                  1529                       # number of overall misses
system.l2.demand_miss_latency::.cpu.inst     23720750                       # number of demand (read+write) miss cycles
system.l2.demand_miss_latency::.cpu.data     80667250                       # number of demand (read+write) miss cycles
system.l2.demand_miss_latency::total        104388000                       # number of demand (read+write) miss cycles
system.l2.overall_miss_latency::.cpu.inst     23720750                       # number of overall miss cycles
system.l2.overall_miss_latency::.cpu.data     80667250                       # number of overall miss cycles
system.l2.overall_miss_latency::total       104388000                       # number of overall miss cycles
system.l2.demand_accesses::.cpu.inst              356                       # number of demand (read+write) accesses
system.l2.demand_accesses::.cpu.data             1232                       # number of demand (read+write) accesses
system.l2.demand_accesses::total                 1588                       # number of demand (read+write) accesses
system.l2.overall_accesses::.cpu.inst             356                       # number of overall (read+write) accesses
system.l2.overall_accesses::.cpu.data            1232                       # number of overall (read+write) accesses
system.l2.overall_accesses::total                1588                       # number of overall (read+write) accesses
system.l2.demand_miss_rate::.cpu.inst        0.935393                       # miss rate for demand accesses
system.l2.demand_miss_rate::.cpu.data        0.970779                       # miss rate for demand accesses
system.l2.demand_miss_rate::total            0.962846                       # miss rate for demand accesses
system.l2.overall_miss_rate::.cpu.inst       0.935393                       # miss rate for overall accesses
system.l2.overall_miss_rate::.cpu.data       0.970779                       # miss rate for overall accesses
system.l2.overall_miss_rate::total           0.962846                       # miss rate for overall accesses
system.l2.demand_avg_miss_latency::.cpu.inst 71233.483483                       # average overall miss latency
system.l2.demand_avg_miss_latency::.cpu.data 67447.533445                       # average overall miss latency
system.l2.demand_avg_miss_latency::total 68272.073250                       # average overall miss latency
system.l2.overall_avg_miss_latency::.cpu.inst 71233.483483                       # average overall miss latency
system.l2.overall_avg_miss_latency::.cpu.data 67447.533445                       # average overall miss latency
system.l2.overall_avg_miss_latency::total 68272.073250                       # average overall miss latency
system.l2.blocked_cycles::no_mshrs                  0                       # number of cycles access was blocked
system.l2.blocked_cycles::no_targets                0                       # number of cycles access was blocked
system.l2.blocked::no_mshrs                         0                       # number of cycles access was blocked
system.l2.blocked::no_targets                       0                       # number of cycles access was blocked
system.l2.avg_blocked_cycles::no_mshrs            nan                       # average number of cycles each access was blocked
system.l2.avg_blocked_cycles::no_targets          nan                       # average number of cycles each access was blocked
system.l2.demand_mshr_misses::.cpu.inst           333                       # number of demand (read+write) MSHR misses
system.l2.demand_mshr_misses::.cpu.data          1196                       # number of demand (read+write) MSHR misses
system.l2.demand_mshr_misses::total              1529                       # number of demand (read+write) MSHR misses
system.l2.overall_mshr_misses::.cpu.inst          333                       # number of overall MSHR misses
system.l2.overall_mshr_misses::.cpu.data         1196                       # number of overall MSHR misses
system.l2.overall_mshr_misses::total             1529                       # number of overall MSHR misses
system.l2.demand_mshr_miss_latency::.cpu.inst     22060750                       # number of demand (read+write) MSHR miss cycles
system.l2.demand_mshr_miss_latency::.cpu.data     74687250                       # number of demand (read+write) MSHR miss cycles
system.l2.demand_mshr_miss_latency::total     96748000                       # number of demand (read+write) MSHR miss cycles
system.l2.overall_mshr_miss_latency::.cpu.inst     22060750                       # number of overall MSHR miss cycles
system.l2.overall_mshr_miss_latency::.cpu.data     74687250                       # number of overall MSHR miss cycles
system.l2.overall_mshr_miss_latency::total     96748000                       # number of overall MSHR miss cycles
system.l2.demand_mshr_miss_rate::.cpu.inst     0.935393                       # mshr miss rate for demand accesses
system.l2.demand_mshr_miss_rate::.cpu.data     0.970779                       # mshr miss rate for demand accesses
system.l2.demand_mshr_miss_rate::total       0.962846                       # mshr miss rate for demand accesses
system.l2.overall_mshr_miss_rate::.cpu.inst     0.935393                       # mshr miss rate for overall accesses
system.l2.overall_mshr_miss_rate::.cpu.data     0.970779                       # mshr miss rate for overall accesses
system.l2.overall_mshr_miss_rate::total      0.962846                       # mshr miss rate for overall accesses
system.l2.demand_avg_mshr_miss_latency::.cpu.inst 66248.498498                       # average overall mshr miss latency
system.l2.demand_avg_mshr_miss_latency::.cpu.data 62447.533445                       # average overall mshr miss latency
system.l2.demand_avg_mshr_miss_latency::total 63275.343362                       # average overall mshr miss latency
system.l2.overall_avg_mshr_miss_latency::.cpu.inst 66248.498498                       # average overall mshr miss latency
system.l2.overall_avg_mshr_miss_latency::.cpu.data 62447.533445                       # average overall mshr miss latency
system.l2.overall_avg_mshr_miss_latency::total 63275.343362                       # average overall mshr miss latency
system.l2.replacements                              0                       # number of replacements
system.l2.WritebackDirty_hits::.writebacks          171                       # number of WritebackDirty hits
system.l2.WritebackDirty_hits::total              171                       # number of WritebackDirty hits
system.l2.WritebackDirty_accesses::.writebacks          171                       # number of WritebackDirty accesses(hits+misses)
system.l2.WritebackDirty_accesses::total          171                       # number of WritebackDirty accesses(hits+misses)
system.l2.WritebackClean_hits::.writebacks          135                       # number of WritebackClean hits
system.l2.WritebackClean_hits::total              135                       # number of WritebackClean hits
system.l2.WritebackClean_accesses::.writebacks          135                       # number of WritebackClean accesses(hits+misses)
system.l2.WritebackClean_accesses::total          135                       # number of WritebackClean accesses(hits+misses)
system.l2.ReadExReq_hits::.cpu.data                15                       # number of ReadExReq hits
system.l2.ReadExReq_hits::total                    15                       # number of ReadExReq hits
system.l2.ReadExReq_misses::.cpu.data             520                       # number of ReadExReq misses
system.l2.ReadExReq_misses::total                 520                       # number of ReadExReq misses
system.l2.ReadExReq_miss_latency::.cpu.data     34229500                       # number of ReadExReq miss cycles
system.l2.ReadExReq_miss_latency::total      34229500                       # number of ReadExReq miss cycles
system.l2.ReadExReq_accesses::.cpu.data           535                       # number of ReadExReq accesses(hits+misses)
system.l2.ReadExReq_accesses::total               535                       # number of ReadExReq accesses(hits+misses)
system.l2.ReadExReq_miss_rate::.cpu.data     0.971963                       # miss rate for ReadExReq accesses
system.l2.ReadExReq_miss_rate::total         0.971963                       # miss rate for ReadExReq accesses
system.l2.ReadExReq_avg_miss_latency::.cpu.data 65825.961538                       # average ReadExReq miss latency
system.l2.ReadExReq_avg_miss_latency::total 65825.961538                       # average ReadExReq miss latency
system.l2.ReadExReq_mshr_misses::.cpu.data          520                       # number of ReadExReq MSHR misses
system.l2.ReadExReq_mshr_misses::total            520                       # number of ReadExReq MSHR misses
system.l2.ReadExReq_mshr_miss_latency::.cpu.data     31629500                       # number of ReadExReq MSHR miss cycles
system.l2.ReadExReq_mshr_miss_latency::total     31629500                       # number of ReadExReq MSHR miss cycles
system.l2.ReadExReq_mshr_miss_rate::.cpu.data     0.971963                       # mshr miss rate for ReadExReq accesses
system.l2.ReadExReq_mshr_miss_rate::total     0.971963                       # mshr miss rate for ReadExReq accesses
system.l2.ReadExReq_avg_mshr_miss_latency::.cpu.data 60825.961538                       # average ReadExReq mshr miss latency
system.l2.ReadExReq_avg_mshr_miss_latency::total 60825.961538                       # average ReadExReq mshr miss latency
system.l2.ReadCleanReq_hits::.cpu.inst             23                       # number of ReadCleanReq hits
system.l2.ReadCleanReq_hits::total                 23                       # number of ReadCleanReq hits
system.l2.ReadCleanReq_misses::.cpu.inst          333                       # number of ReadCleanReq misses
system.l2.ReadCleanReq_misses::total              333                       # number of ReadCleanReq misses
system.l2.ReadCleanReq_miss_latency::.cpu.inst     23720750                       # number of ReadCleanReq miss cycles
system.l2.ReadCleanReq_miss_latency::total     23720750                       # number of ReadCleanReq miss cycles
system.l2.ReadCleanReq_accesses::.cpu.inst          356                       # number of ReadCleanReq accesses(hits+misses)
system.l2.ReadCleanReq_accesses::total            356                       # number of ReadCleanReq accesses(hits+misses)
system.l2.ReadCleanReq_miss_rate::.cpu.inst     0.935393                       # miss rate for ReadCleanReq accesses
system.l2.ReadCleanReq_miss_rate::total      0.935393                       # miss rate for ReadCleanReq accesses
system.l2.ReadCleanReq_avg_miss_latency::.cpu.inst 71233.483483                       # average ReadCleanReq miss latency
system.l2.ReadCleanReq_avg_miss_latency::total 71233.483483                       # average ReadCleanReq miss latency
system.l2.ReadCleanReq_mshr_misses::.cpu.inst          333                       # number of ReadCleanReq MSHR misses
system.l2.ReadCleanReq_mshr_misses::total          333                       # number of ReadCleanReq MSHR misses
system.l2.ReadCleanReq_mshr_miss_latency::.cpu.inst     22060750                       # number of ReadCleanReq MSHR miss cycles
system.l2.ReadCleanReq_mshr_miss_latency::total     22060750                       # number of ReadCleanReq MSHR miss cycles
system.l2.ReadCleanReq_mshr_miss_rate::.cpu.inst     0.935393                       # mshr miss rate for ReadCleanReq accesses
system.l2.ReadCleanReq_mshr_miss_rate::total     0.935393                       # mshr miss rate for ReadCleanReq accesses
system.l2.ReadCleanReq_avg_mshr_miss_latency::.cpu.inst 66248.498498                       # average ReadCleanReq mshr miss latency
system.l2.ReadCleanReq_avg_mshr_miss_latency::total 66248.498498                       # average ReadCleanReq mshr miss latency
system.l2.ReadSharedReq_hits::.cpu.data            21                       # number of ReadSharedReq hits
system.l2.ReadSharedReq_hits::total                21                       # number of ReadSharedReq hits
system.l2.ReadSharedReq_misses::.cpu.data          676                       # number of ReadSharedReq misses
system.l2.ReadSharedReq_misses::total             676                       # number of ReadSharedReq misses
system.l2.ReadSharedReq_miss_latency::.cpu.data     46437750                       # number of ReadSharedReq miss cycles
system.l2.ReadSharedReq_miss_latency::total     46437750                       # number of ReadSharedReq miss cycles
system.l2.ReadSharedReq_accesses::.cpu.data          697                       # number of ReadSharedReq accesses(hits+misses)
system.l2.ReadSharedReq_accesses::total           697                       # number of ReadSharedReq accesses(hits+misses)
system.l2.ReadSharedReq_miss_rate::.cpu.data     0.969871                       # miss rate for ReadSharedReq accesses
system.l2.ReadSharedReq_miss_rate::total     0.969871                       # miss rate for ReadSharedReq accesses
system.l2.ReadSharedReq_avg_miss_latency::.cpu.data 68694.896450                       # average ReadSharedReq miss latency
system.l2.ReadSharedReq_avg_miss_latency::total 68694.896450                       # average ReadSharedReq miss latency
system.l2.ReadSharedReq_mshr_misses::.cpu.data          676                       # number of ReadSharedReq MSHR misses
system.l2.ReadSharedReq_mshr_misses::total          676                       # number of ReadSharedReq MSHR misses
system.l2.ReadSharedReq_mshr_miss_latency::.cpu.data     43057750                       # number of ReadSharedReq MSHR miss cycles
system.l2.ReadSharedReq_mshr_miss_latency::total     43057750                       # number of ReadSharedReq MSHR miss cycles
system.l2.ReadSharedReq_mshr_miss_rate::.cpu.data     0.969871                       # mshr miss rate for ReadSharedReq accesses
system.l2.ReadSharedReq_mshr_miss_rate::total     0.969871                       # mshr miss rate for ReadSharedReq accesses
system.l2.ReadSharedReq_avg_mshr_miss_latency::.cpu.data 63694.896450                       # average ReadSharedReq mshr miss latency
system.l2.ReadSharedReq_avg_mshr_miss_latency::total 63694.896450                       # average ReadSharedReq mshr miss latency
system.l2.tags.pwrStateResidencyTicks::UNDEFINED    670915750                       # Cumulative time (in ticks) in various power states
system.l2.tags.tagsinuse                  1004.579773                       # Cycle average of tags in use
system.l2.tags.total_refs                        1929                       # Total number of references to valid blocks.
system.l2.tags.sampled_refs                      1528                       # Sample count of references to valid blocks.
system.l2.tags.avg_refs                      1.262435                       # Average number of references to valid blocks.
system.l2.tags.warmup_cycle                     77000                       # Cycle when the warmup percentage was hit.
system.l2.tags.occ_blocks::.cpu.inst       301.377180                       # Average occupied blocks per requestor
system.l2.tags.occ_blocks::.cpu.data       703.202592                       # Average occupied blocks per requestor
system.l2.tags.occ_percent::.cpu.inst        0.073578                       # Average percentage of cache occupancy
system.l2.tags.occ_percent::.cpu.data        0.171680                       # Average percentage of cache occupancy
system.l2.tags.occ_percent::total            0.245259                       # Average percentage of cache occupancy
system.l2.tags.occ_task_id_blocks::1024          1528                       # Occupied blocks per task id
system.l2.tags.age_task_id_blocks_1024::0           49                       # Occupied blocks per task id
system.l2.tags.age_task_id_blocks_1024::1           62                       # Occupied blocks per task id
system.l2.tags.age_task_id_blocks_1024::2         1417                       # Occupied blocks per task id
system.l2.tags.occ_task_id_percent::1024     0.373047                       # Percentage of cache occupancy per task id
system.l2.tags.tag_accesses                     16968                       # Number of tag accesses
system.l2.tags.data_accesses                    16968                       # Number of data accesses
system.cpu_voltage_domain.voltage                   1                       # Voltage in Volts
system.mem_ctrls.pwrStateResidencyTicks::UNDEFINED    670915750                       # Cumulative time (in ticks) in various power states
system.mem_ctrls.bytes_read::.cpu.inst          21248                       # Number of bytes read from this memory
system.mem_ctrls.bytes_read::.cpu.data          76544                       # Number of bytes read from this memory
system.mem_ctrls.bytes_read::total              97792                       # Number of bytes read from this memory
system.mem_ctrls.bytes_inst_read::.cpu.inst        21248                       # Number of instructions bytes read from this memory
system.mem_ctrls.bytes_inst_read::total         21248                       # Number of instructions bytes read from this memory
system.mem_ctrls.num_reads::.cpu.inst             332                       # Number of read requests responded to by this memory
system.mem_ctrls.num_reads::.cpu.data            1196                       # Number of read requests responded to by this memory
system.mem_ctrls.num_reads::total                1528                       # Number of read requests responded to by this memory
system.mem_ctrls.bw_read::.cpu.inst          31670146                       # Total read bandwidth from this memory (bytes/s)
system.mem_ctrls.bw_read::.cpu.data         114088841                       # Total read bandwidth from this memory (bytes/s)
system.mem_ctrls.bw_read::total             145758987                       # Total read bandwidth from this memory (bytes/s)
system.mem_ctrls.bw_inst_read::.cpu.inst     31670146                       # Instruction read bandwidth from this memory (bytes/s)
system.mem_ctrls.bw_inst_read::total         31670146                       # Instruction read bandwidth from this memory (bytes/s)
system.mem_ctrls.bw_total::.cpu.inst         31670146                       # Total bandwidth to/from this memory (bytes/s)
system.mem_ctrls.bw_total::.cpu.data        114088841                       # Total bandwidth to/from this memory (bytes/s)
system.mem_ctrls.bw_total::total            145758987                       # Total bandwidth to/from this memory (bytes/s)
system.mem_ctrls.avgPriority_.cpu.inst::samples       332.00                       # Average QoS priority value for accepted requests
system.mem_ctrls.avgPriority_.cpu.data::samples      1196.00                       # Average QoS priority value for accepted requests
system.mem_ctrls.priorityMinLatency      0.000000018750                       # per QoS priority minimum request to response latency (s)
system.mem_ctrls.priorityMaxLatency      0.000000686500                       # per QoS priority maximum request to response latency (s)
system.mem_ctrls.numReadWriteTurnArounds            0                       # Number of turnarounds from READ to WRITE
system.mem_ctrls.numWriteReadTurnArounds            0                       # Number of turnarounds from WRITE to READ
system.mem_ctrls.numStayReadState                3180                       # Number of times bus staying in READ state
system.mem_ctrls.numStayWriteState                  0                       # Number of times bus staying in WRITE state
system.mem_ctrls.readReqs                        1528                       # Number of read requests accepted
system.mem_ctrls.writeReqs                          0                       # Number of write requests accepted
system.mem_ctrls.readBursts                      1528                       # Number of DRAM read bursts, including those serviced by the write queue
system.mem_ctrls.writeBursts                        0                       # Number of DRAM write bursts, including those merged in the write queue
system.mem_ctrls.servicedByWrQ                      0                       # Number of DRAM read bursts serviced by the write queue
system.mem_ctrls.mergedWrBursts                     0                       # Number of DRAM write bursts merged with an existing one
system.mem_ctrls.neitherReadNorWriteReqs            0                       # Number of requests that are neither read nor write
system.mem_ctrls.perBankRdBursts::0               187                       # Per bank write bursts
system.mem_ctrls.perBankRdBursts::1               172                       # Per bank write bursts
system.mem_ctrls.perBankRdBursts::2               151                       # Per bank write bursts
system.mem_ctrls.perBankRdBursts::3               145                       # Per bank write bursts
system.mem_ctrls.perBankRdBursts::4                85                       # Per bank write bursts
system.mem_ctrls.perBankRdBursts::5               140                       # Per bank write bursts
system.mem_ctrls.perBankRdBursts::6               148                       # Per bank write bursts
system.mem_ctrls.perBankRdBursts::7               139                       # Per bank write bursts
system.mem_ctrls.perBankRdBursts::8                93                       # Per bank write bursts
system.mem_ctrls.perBankRdBursts::9                84                       # Per bank write bursts
system.mem_ctrls.perBankRdBursts::10               45                       # Per bank write bursts
system.mem_ctrls.perBankRdBursts::11                0                       # Per bank write bursts
system.mem_ctrls.perBankRdBursts::12                3                       # Per bank write bursts
system.mem_ctrls.perBankRdBursts::13                0                       # Per bank write bursts
system.mem_ctrls.perBankRdBursts::14                6                       # Per bank write bursts
system.mem_ctrls.perBankRdBursts::15              130                       # Per bank write bursts
system.mem_ctrls.perBankWrBursts::0                 0                       # Per bank write bursts
system.mem_ctrls.perBankWrBursts::1                 0                       # Per bank write bursts
system.mem_ctrls.perBankWrBursts::2                 0                       # Per bank write bursts
system.mem_ctrls.perBankWrBursts::3                 0                       # Per bank write bursts
system.mem_ctrls.perBankWrBursts::4                 0                       # Per bank write bursts
system.mem_ctrls.perBankWrBursts::5                 0                       # Per bank write bursts
system.mem_ctrls.perBankWrBursts::6                 0                       # Per bank write bursts
system.mem_ctrls.perBankWrBursts::7                 0                       # Per bank write bursts
system.mem_ctrls.perBankWrBursts::8                 0                       # Per bank write bursts
system.mem_ctrls.perBankWrBursts::9                 0                       # Per bank write bursts
system.mem_ctrls.perBankWrBursts::10                0                       # Per bank write bursts
system.mem_ctrls.perBankWrBursts::11                0                       # Per bank write bursts
system.mem_ctrls.perBankWrBursts::12                0                       # Per bank write bursts
system.mem_ctrls.perBankWrBursts::13                0                       # Per bank write bursts
system.mem_ctrls.perBankWrBursts::14                0                       # Per bank write bursts
system.mem_ctrls.perBankWrBursts::15                0                       # Per bank write bursts
system.mem_ctrls.avgRdQLen                       1.08                       # Average read queue length when enqueuing
system.mem_ctrls.avgWrQLen                       0.00                       # Average write queue length when enqueuing
system.mem_ctrls.totQLat                     13139250                       # Total ticks spent queuing
system.mem_ctrls.totBusLat                    7640000                       # Total ticks spent in databus transfers
system.mem_ctrls.totMemAccLat                41789250                       # Total ticks spent from burst creation until serviced by the DRAM
system.mem_ctrls.avgQLat                      8598.99                       # Average queueing delay per DRAM burst
system.mem_ctrls.avgBusLat                    5000.00                       # Average bus latency per DRAM burst
system.mem_ctrls.avgMemAccLat                27348.99                       # Average memory access latency per DRAM burst
system.mem_ctrls.numRdRetry                         0                       # Number of times read queue was full causing retry
system.mem_ctrls.numWrRetry                         0                       # Number of times write queue was full causing retry
system.mem_ctrls.readRowHits                     1239                       # Number of row buffer hits during reads
[...]
system.cpu.icache.ReadReq_avg_mshr_miss_latency::.cpu.inst 67727.528090                       # average ReadReq mshr miss latency
system.cpu.icache.ReadReq_avg_mshr_miss_latency::total 67727.528090                       # average ReadReq mshr miss latency
system.cpu.icache.tags.pwrStateResidencyTicks::UNDEFINED    670915750                       # Cumulative time (in ticks) in various power states
system.cpu.icache.tags.tagsinuse           204.484501                       # Cycle average of tags in use
system.cpu.icache.tags.total_refs              613389                       # Total number of references to valid blocks.
system.cpu.icache.tags.sampled_refs               355                       # Sample count of references to valid blocks.
system.cpu.icache.tags.avg_refs           1727.856338                       # Average number of references to valid blocks.
system.cpu.icache.tags.warmup_cycle             82250                       # Cycle when the warmup percentage was hit.
system.cpu.icache.tags.occ_blocks::.cpu.inst   204.484501                       # Average occupied blocks per requestor
system.cpu.icache.tags.occ_percent::.cpu.inst     0.798768                       # Average percentage of cache occupancy
system.cpu.icache.tags.occ_percent::total     0.798768                       # Average percentage of cache occupancy
system.cpu.icache.tags.occ_task_id_blocks::1024          220                       # Occupied blocks per task id
system.cpu.icache.tags.age_task_id_blocks_1024::0           27                       # Occupied blocks per task id
system.cpu.icache.tags.age_task_id_blocks_1024::2          193                       # Occupied blocks per task id
system.cpu.icache.tags.occ_task_id_percent::1024     0.859375                       # Percentage of cache occupancy per task id
system.cpu.icache.tags.tag_accesses           1227455                       # Number of tag accesses
system.cpu.icache.tags.data_accesses          1227455                       # Number of data accesses
system.cpu.dtb.walker.pwrStateResidencyTicks::UNDEFINED    670915750                       # Cumulative time (in ticks) in various power states
system.cpu.interrupts.clk_domain.clock           4000                       # Clock period in ticks
system.cpu.itb_walker_cache.pwrStateResidencyTicks::UNDEFINED    670915750                       # Cumulative time (in ticks) in various power states
system.cpu.itb_walker_cache.blocked_cycles::no_mshrs            0                       # number of cycles access was blocked
system.cpu.itb_walker_cache.blocked_cycles::no_targets            0                       # number of cycles access was blocked
system.cpu.itb_walker_cache.blocked::no_mshrs            0                       # number of cycles access was blocked
system.cpu.itb_walker_cache.blocked::no_targets            0                       # number of cycles access was blocked
system.cpu.itb_walker_cache.avg_blocked_cycles::no_mshrs          nan                       # average number of cycles each access was blocked
system.cpu.itb_walker_cache.avg_blocked_cycles::no_targets          nan                       # average number of cycles each access was blocked
system.cpu.itb_walker_cache.replacements            0                       # number of replacements
system.cpu.itb_walker_cache.tags.pwrStateResidencyTicks::UNDEFINED    670915750                       # Cumulative time (in ticks) in various power states
system.cpu.itb_walker_cache.tags.tagsinuse            0                       # Cycle average of tags in use
system.cpu.itb_walker_cache.tags.total_refs            0                       # Total number of references to valid blocks.
system.cpu.itb_walker_cache.tags.sampled_refs            0                       # Sample count of references to valid blocks.
system.cpu.itb_walker_cache.tags.avg_refs          nan                       # Average number of references to valid blocks.
system.cpu.itb_walker_cache.tags.warmup_cycle            0                       # Cycle when the warmup percentage was hit.
system.cpu.itb_walker_cache.tags.tag_accesses            0                       # Number of tag accesses
system.cpu.itb_walker_cache.tags.data_accesses            0                       # Number of data accesses
system.cpu.itb.walker.pwrStateResidencyTicks::UNDEFINED    670915750                       # Cumulative time (in ticks) in various power states
system.cpu.dtb_walker_cache.pwrStateResidencyTicks::UNDEFINED    670915750                       # Cumulative time (in ticks) in various power states
system.cpu.dtb_walker_cache.blocked_cycles::no_mshrs            0                       # number of cycles access was blocked
system.cpu.dtb_walker_cache.blocked_cycles::no_targets            0                       # number of cycles access was blocked
system.cpu.dtb_walker_cache.blocked::no_mshrs            0                       # number of cycles access was blocked
system.cpu.dtb_walker_cache.blocked::no_targets            0                       # number of cycles access was blocked
system.cpu.dtb_walker_cache.avg_blocked_cycles::no_mshrs          nan                       # average number of cycles each access was blocked
system.cpu.dtb_walker_cache.avg_blocked_cycles::no_targets          nan                       # average number of cycles each access was blocked
system.cpu.dtb_walker_cache.replacements            0                       # number of replacements
system.cpu.dtb_walker_cache.tags.pwrStateResidencyTicks::UNDEFINED    670915750                       # Cumulative time (in ticks) in various power states
system.cpu.dtb_walker_cache.tags.tagsinuse            0                       # Cycle average of tags in use
system.cpu.dtb_walker_cache.tags.total_refs            0                       # Total number of references to valid blocks.
system.cpu.dtb_walker_cache.tags.sampled_refs            0                       # Sample count of references to valid blocks.
system.cpu.dtb_walker_cache.tags.avg_refs          nan                       # Average number of references to valid blocks.
system.cpu.dtb_walker_cache.tags.warmup_cycle            0                       # Cycle when the warmup percentage was hit.
system.cpu.dtb_walker_cache.tags.tag_accesses            0                       # Number of tag accesses
system.cpu.dtb_walker_cache.tags.data_accesses            0                       # Number of data accesses
system.cpu.dcache.pwrStateResidencyTicks::UNDEFINED    670915750                       # Cumulative time (in ticks) in various power states
system.cpu.dcache.demand_hits::.cpu.data       818700                       # number of demand (read+write) hits
system.cpu.dcache.demand_hits::total           818700                       # number of demand (read+write) hits
system.cpu.dcache.overall_hits::.cpu.data       818700                       # number of overall hits
system.cpu.dcache.overall_hits::total          818700                       # number of overall hits
system.cpu.dcache.demand_misses::.cpu.data         3086                       # number of demand (read+write) misses
system.cpu.dcache.demand_misses::total           3086                       # number of demand (read+write) misses
system.cpu.dcache.overall_misses::.cpu.data         3086                       # number of overall misses
system.cpu.dcache.overall_misses::total          3086                       # number of overall misses
system.cpu.dcache.demand_miss_latency::.cpu.data    179185499                       # number of demand (read+write) miss cycles
system.cpu.dcache.demand_miss_latency::total    179185499                       # number of demand (read+write) miss cycles
system.cpu.dcache.overall_miss_latency::.cpu.data    179185499                       # number of overall miss cycles
system.cpu.dcache.overall_miss_latency::total    179185499                       # number of overall miss cycles
system.cpu.dcache.demand_accesses::.cpu.data       821786                       # number of demand (read+write) accesses
system.cpu.dcache.demand_accesses::total       821786                       # number of demand (read+write) accesses
system.cpu.dcache.overall_accesses::.cpu.data       821786                       # number of overall (read+write) accesses
system.cpu.dcache.overall_accesses::total       821786                       # number of overall (read+write) accesses
system.cpu.dcache.demand_miss_rate::.cpu.data     0.003755                       # miss rate for demand accesses
system.cpu.dcache.demand_miss_rate::total     0.003755                       # miss rate for demand accesses
system.cpu.dcache.overall_miss_rate::.cpu.data     0.003755                       # miss rate for overall accesses
system.cpu.dcache.overall_miss_rate::total     0.003755                       # miss rate for overall accesses
system.cpu.dcache.demand_avg_miss_latency::.cpu.data 58063.998380                       # average overall miss latency
system.cpu.dcache.demand_avg_miss_latency::total 58063.998380                       # average overall miss latency
system.cpu.dcache.overall_avg_miss_latency::.cpu.data 58063.998380                       # average overall miss latency
system.cpu.dcache.overall_avg_miss_latency::total 58063.998380                       # average overall miss latency
system.cpu.dcache.blocked_cycles::no_mshrs         1010                       # number of cycles access was blocked
system.cpu.dcache.blocked_cycles::no_targets            0                       # number of cycles access was blocked
system.cpu.dcache.blocked::no_mshrs                12                       # number of cycles access was blocked
system.cpu.dcache.blocked::no_targets               0                       # number of cycles access was blocked
system.cpu.dcache.avg_blocked_cycles::no_mshrs    84.166667                       # average number of cycles each access was blocked
system.cpu.dcache.avg_blocked_cycles::no_targets          nan                       # average number of cycles each access was blocked
system.cpu.dcache.writebacks::.writebacks          171                       # number of writebacks
system.cpu.dcache.writebacks::total               171                       # number of writebacks
system.cpu.dcache.demand_mshr_hits::.cpu.data         1854                       # number of demand (read+write) MSHR hits
system.cpu.dcache.demand_mshr_hits::total         1854                       # number of demand (read+write) MSHR hits
system.cpu.dcache.overall_mshr_hits::.cpu.data         1854                       # number of overall MSHR hits
system.cpu.dcache.overall_mshr_hits::total         1854                       # number of overall MSHR hits
system.cpu.dcache.demand_mshr_misses::.cpu.data         1232                       # number of demand (read+write) MSHR misses
system.cpu.dcache.demand_mshr_misses::total         1232                       # number of demand (read+write) MSHR misses
system.cpu.dcache.overall_mshr_misses::.cpu.data         1232                       # number of overall MSHR misses
system.cpu.dcache.overall_mshr_misses::total         1232                       # number of overall MSHR misses
system.cpu.dcache.demand_mshr_miss_latency::.cpu.data     81787499                       # number of demand (read+write) MSHR miss cycles
system.cpu.dcache.demand_mshr_miss_latency::total     81787499                       # number of demand (read+write) MSHR miss cycles
system.cpu.dcache.overall_mshr_miss_latency::.cpu.data     81787499                       # number of overall MSHR miss cycles
system.cpu.dcache.overall_mshr_miss_latency::total     81787499                       # number of overall MSHR miss cycles
system.cpu.dcache.demand_mshr_miss_rate::.cpu.data     0.001499                       # mshr miss rate for demand accesses
system.cpu.dcache.demand_mshr_miss_rate::total     0.001499                       # mshr miss rate for demand accesses
system.cpu.dcache.overall_mshr_miss_rate::.cpu.data     0.001499                       # mshr miss rate for overall accesses
system.cpu.dcache.overall_mshr_miss_rate::total     0.001499                       # mshr miss rate for overall accesses
system.cpu.dcache.demand_avg_mshr_miss_latency::.cpu.data 66385.956981                       # average overall mshr miss latency
system.cpu.dcache.demand_avg_mshr_miss_latency::total 66385.956981                       # average overall mshr miss latency
system.cpu.dcache.overall_avg_mshr_miss_latency::.cpu.data 66385.956981                       # average overall mshr miss latency
system.cpu.dcache.overall_avg_mshr_miss_latency::total 66385.956981                       # average overall mshr miss latency
system.cpu.dcache.replacements                    208                       # number of replacements
system.cpu.dcache.ReadReq_hits::.cpu.data       490683                       # number of ReadReq hits
system.cpu.dcache.ReadReq_hits::total          490683                       # number of ReadReq hits
system.cpu.dcache.ReadReq_misses::.cpu.data         2479                       # number of ReadReq misses
system.cpu.dcache.ReadReq_misses::total          2479                       # number of ReadReq misses
system.cpu.dcache.ReadReq_miss_latency::.cpu.data    142403000                       # number of ReadReq miss cycles
system.cpu.dcache.ReadReq_miss_latency::total    142403000                       # number of ReadReq miss cycles
system.cpu.dcache.ReadReq_accesses::.cpu.data       493162                       # number of ReadReq accesses(hits+misses)
system.cpu.dcache.ReadReq_accesses::total       493162                       # number of ReadReq accesses(hits+misses)
system.cpu.dcache.ReadReq_miss_rate::.cpu.data     0.005027                       # miss rate for ReadReq accesses
system.cpu.dcache.ReadReq_miss_rate::total     0.005027                       # miss rate for ReadReq accesses
system.cpu.dcache.ReadReq_avg_miss_latency::.cpu.data 57443.727309                       # average ReadReq miss latency
system.cpu.dcache.ReadReq_avg_miss_latency::total 57443.727309                       # average ReadReq miss latency
system.cpu.dcache.ReadReq_mshr_hits::.cpu.data         1782                       # number of ReadReq MSHR hits
system.cpu.dcache.ReadReq_mshr_hits::total         1782                       # number of ReadReq MSHR hits
system.cpu.dcache.ReadReq_mshr_misses::.cpu.data          697                       # number of ReadReq MSHR misses
system.cpu.dcache.ReadReq_mshr_misses::total          697                       # number of ReadReq MSHR misses
system.cpu.dcache.ReadReq_mshr_miss_latency::.cpu.data     47077750                       # number of ReadReq MSHR miss cycles
system.cpu.dcache.ReadReq_mshr_miss_latency::total     47077750                       # number of ReadReq MSHR miss cycles
system.cpu.dcache.ReadReq_mshr_miss_rate::.cpu.data     0.001413                       # mshr miss rate for ReadReq accesses
system.cpu.dcache.ReadReq_mshr_miss_rate::total     0.001413                       # mshr miss rate for ReadReq accesses
system.cpu.dcache.ReadReq_avg_mshr_miss_latency::.cpu.data 67543.400287                       # average ReadReq mshr miss latency
system.cpu.dcache.ReadReq_avg_mshr_miss_latency::total 67543.400287                       # average ReadReq mshr miss latency
system.cpu.dcache.WriteReq_hits::.cpu.data       328017                       # number of WriteReq hits
system.cpu.dcache.WriteReq_hits::total         328017                       # number of WriteReq hits
system.cpu.dcache.WriteReq_misses::.cpu.data          607                       # number of WriteReq misses
system.cpu.dcache.WriteReq_misses::total          607                       # number of WriteReq misses
system.cpu.dcache.WriteReq_miss_latency::.cpu.data     36782499                       # number of WriteReq miss cycles
system.cpu.dcache.WriteReq_miss_latency::total     36782499                       # number of WriteReq miss cycles
system.cpu.dcache.WriteReq_accesses::.cpu.data       328624                       # number of WriteReq accesses(hits+misses)
system.cpu.dcache.WriteReq_accesses::total       328624                       # number of WriteReq accesses(hits+misses)
system.cpu.dcache.WriteReq_miss_rate::.cpu.data     0.001847                       # miss rate for WriteReq accesses
system.cpu.dcache.WriteReq_miss_rate::total     0.001847                       # miss rate for WriteReq accesses
system.cpu.dcache.WriteReq_avg_miss_latency::.cpu.data 60597.197694                       # average WriteReq miss latency
system.cpu.dcache.WriteReq_avg_miss_latency::total 60597.197694                       # average WriteReq miss latency
system.cpu.dcache.WriteReq_mshr_hits::.cpu.data           72                       # number of WriteReq MSHR hits
system.cpu.dcache.WriteReq_mshr_hits::total           72                       # number of WriteReq MSHR hits
system.cpu.dcache.WriteReq_mshr_misses::.cpu.data          535                       # number of WriteReq MSHR misses
system.cpu.dcache.WriteReq_mshr_misses::total          535                       # number of WriteReq MSHR misses
system.cpu.dcache.WriteReq_mshr_miss_latency::.cpu.data     34709749                       # number of WriteReq MSHR miss cycles
system.cpu.dcache.WriteReq_mshr_miss_latency::total     34709749                       # number of WriteReq MSHR miss cycles
system.cpu.dcache.WriteReq_mshr_miss_rate::.cpu.data     0.001628                       # mshr miss rate for WriteReq accesses
system.cpu.dcache.WriteReq_mshr_miss_rate::total     0.001628                       # mshr miss rate for WriteReq accesses
system.cpu.dcache.WriteReq_avg_mshr_miss_latency::.cpu.data 64878.035514                       # average WriteReq mshr miss latency
system.cpu.dcache.WriteReq_avg_mshr_miss_latency::total 64878.035514                       # average WriteReq mshr miss latency
system.cpu.dcache.tags.pwrStateResidencyTicks::UNDEFINED    670915750                       # Cumulative time (in ticks) in various power states
system.cpu.dcache.tags.tagsinuse           650.869456                       # Cycle average of tags in use
system.cpu.dcache.tags.total_refs              819932                       # Total number of references to valid blocks.
system.cpu.dcache.tags.sampled_refs              1232                       # Sample count of references to valid blocks.
system.cpu.dcache.tags.avg_refs            665.529221                       # Average number of references to valid blocks.
system.cpu.dcache.tags.warmup_cycle            158250                       # Cycle when the warmup percentage was hit.
system.cpu.dcache.tags.occ_blocks::.cpu.data   650.869456                       # Average occupied blocks per requestor
system.cpu.dcache.tags.occ_percent::.cpu.data     0.635615                       # Average percentage of cache occupancy
system.cpu.dcache.tags.occ_percent::total     0.635615                       # Average percentage of cache occupancy
system.cpu.dcache.tags.occ_task_id_blocks::1024         1024                       # Occupied blocks per task id
system.cpu.dcache.tags.age_task_id_blocks_1024::0           39                       # Occupied blocks per task id
system.cpu.dcache.tags.age_task_id_blocks_1024::1           65                       # Occupied blocks per task id
system.cpu.dcache.tags.age_task_id_blocks_1024::2          920                       # Occupied blocks per task id
system.cpu.dcache.tags.occ_task_id_percent::1024            1                       # Percentage of cache occupancy per task id
system.cpu.dcache.tags.tag_accesses           1644804                       # Number of tag accesses
system.cpu.dcache.tags.data_accesses          1644804                       # Number of data accesses

---------- End Simulation Statistics   ----------
